1M17
                    3D
 Schrodinger Suite 2021-2.
953946  0  0  1  0            999 V2000
   18.9290   -9.5324   46.6401 H   0  0  0  0  0  0
   18.4978   -8.6762   46.1190 C   0  0  0  0  0  0
   19.2082   -7.8687   46.2386 H   0  0  0  0  0  0
   17.1013   -8.3416   46.6975 C   0  0  0  0  0  0
   16.2754   -7.3710   45.8352 C   0  0  0  0  0  0
   14.8165   -7.2329   46.2950 C   0  0  0  0  0  0
   14.6670   -6.5446   47.6603 C   0  0  0  0  0  0
   13.2486   -6.3829   48.0210 N   0  3  0  0  0  0
   18.3826   -8.9774   45.0755 H   0  0  0  0  0  0
   17.2158   -7.9430   47.7064 H   0  0  0  0  0  0
   16.5196   -9.2569   46.8070 H   0  0  0  0  0  0
   16.2784   -7.7237   44.8032 H   0  0  0  0  0  0
   16.7402   -6.3874   45.8214 H   0  0  0  0  0  0
   14.3453   -8.2166   46.3178 H   0  0  0  0  0  0
   14.2737   -6.6552   45.5452 H   0  0  0  0  0  0
   15.1404   -5.5619   47.6436 H   0  0  0  0  0  0
   15.1550   -7.1251   48.4432 H   0  0  0  0  0  0
   12.8048   -7.2890   48.0709 H   0  0  0  0  0  0
   13.1770   -5.9235   48.9177 H   0  0  0  0  0  0
   12.7848   -5.8213   47.3209 H   0  0  0  0  0  0
   19.5864   -6.3028   45.0376 H   0  0  0  0  0  0
   20.1095   -5.3603   45.0197 C   0  0  0  0  0  0
   19.2293   -4.2959   45.7095 C   0  0  0  0  0  0
   18.0357   -4.1890   45.4277 O   0  0  0  0  0  0
   20.4086   -5.0059   43.5380 C   0  0  0  0  0  0
   19.1773   -4.9191   42.6121 C   0  0  0  0  0  0
   21.2776   -3.7438   43.4115 C   0  0  0  0  0  0
   21.0643   -5.4320   45.5349 H   0  0  0  0  0  0
   21.0195   -5.8252   43.1552 H   0  0  0  0  0  0
   19.4874   -4.8051   41.5729 H   0  0  0  0  0  0
   18.5618   -5.8169   42.6661 H   0  0  0  0  0  0
   18.5455   -4.0641   42.8522 H   0  0  0  0  0  0
   21.6479   -3.6466   42.3925 H   0  0  0  0  0  0
   20.7213   -2.8387   43.6553 H   0  0  0  0  0  0
   22.1481   -3.7909   44.0671 H   0  0  0  0  0  0
   19.8276   -3.5212   46.6266 N   0  0  0  0  0  0
   19.1772   -2.4429   47.3746 C   0  0  2  0  0  0
   19.3582   -1.0788   46.6808 C   0  0  0  0  0  0
   18.5322   -0.1908   46.8858 O   0  0  0  0  0  0
   19.8265   -2.3431   48.7746 C   0  0  0  0  0  0
   19.6019   -3.5600   49.6970 C   0  0  0  0  0  0
   20.5154   -3.4611   50.9285 C   0  0  0  0  0  0
   18.1294   -3.6867   50.1262 C   0  0  0  0  0  0
   20.8161   -3.6587   46.7974 H   0  0  0  0  0  0
   18.1074   -2.6311   47.4729 H   0  0  0  0  0  0
   19.4336   -1.4686   49.2932 H   0  0  0  0  0  0
   20.8980   -2.1672   48.6648 H   0  0  0  0  0  0
   19.8789   -4.4693   49.1620 H   0  0  0  0  0  0
   20.3174   -4.2491   51.6536 H   0  0  0  0  0  0
   21.5623   -3.5415   50.6440 H   0  0  0  0  0  0
   20.3871   -2.5081   51.4354 H   0  0  0  0  0  0
   17.9890   -4.5073   50.8289 H   0  0  0  0  0  0
   17.7811   -2.7763   50.6154 H   0  0  0  0  0  0
   17.4772   -3.8805   49.2751 H   0  0  0  0  0  0
   20.4049   -0.9097   45.8569 N   0  0  0  0  0  0
   20.6634    0.3098   45.1003 C   0  0  0  0  0  0
   21.8685    0.1373   44.1757 C   0  0  0  0  0  0
   22.8271   -0.5441   44.5356 O   0  0  0  0  0  0
   21.0578   -1.6723   45.7407 H   0  0  0  0  0  0
   20.8598    1.1330   45.7887 H   0  0  0  0  0  0
   19.7794    0.5723   44.5166 H   0  0  0  0  0  0
   21.8129    0.7759   42.9954 N   0  0  0  0  0  0
   22.8192    0.7219   41.9323 C   0  0  2  0  0  0
   23.2142    2.1459   41.5158 C   0  0  0  0  0  0
   22.9863    2.5498   40.3750 O   0  0  0  0  0  0
   22.2912   -0.1214   40.7496 C   0  0  0  0  0  0
   22.2368   -1.4898   41.0829 O   0  0  0  0  0  0
   20.9914    1.3306   42.8018 H   0  0  0  0  0  0
   23.7335    0.2614   42.3053 H   0  0  0  0  0  0
   22.9533   -0.0314   39.8872 H   0  0  0  0  0  0
   21.3036    0.2159   40.4323 H   0  0  0  0  0  0
   21.6382   -1.5982   41.8062 H   0  0  0  0  0  0
   23.7841    2.9190   42.4542 N   0  0  0  0  0  0
   24.1674    4.3155   42.2535 C   0  0  0  0  0  0
   25.4988    4.5003   41.5128 C   0  0  0  0  0  0
   26.1097    3.5399   41.0410 O   0  0  0  0  0  0
   23.9624    2.5158   43.3625 H   0  0  0  0  0  0
   24.2322    4.7967   43.2276 H   0  0  0  0  0  0
   23.3824    4.8403   41.7066 H   0  0  0  0  0  0
   25.9490    5.7633   41.4235 N   0  0  0  0  0  0
   27.1804    6.2030   40.7570 C   0  0  2  0  0  0
   28.4173    5.9934   41.6596 C   0  0  0  0  0  0
   29.1851    6.9161   41.9318 O   0  0  0  0  0  0
   27.0142    7.6929   40.4056 C   0  0  0  0  0  0
   25.3887    6.4883   41.8476 H   0  0  0  0  0  0
   27.3227    5.6351   39.8357 H   0  0  0  0  0  0
   27.8824    8.0746   39.8669 H   0  0  0  0  0  0
   26.1466    7.8462   39.7629 H   0  0  0  0  0  0
   26.8761    8.3076   41.2966 H   0  0  0  0  0  0
   28.5824    4.7513   42.1296 N   0  0  0  0  0  0
   29.6325    4.2561   43.0163 C   0  0  2  0  0  0
   29.8391    2.7380   42.8681 C   0  0  0  0  0  0
   30.8386    2.2154   43.3585 O   0  0  0  0  0  0
   29.3475    4.6867   44.4763 C   0  0  0  0  0  0
   28.0350    4.1667   45.0479 C   0  0  0  0  0  0
   27.9399    2.8395   45.5182 C   0  0  0  0  0  0
   26.8944    4.9973   45.0786 C   0  0  0  0  0  0
   26.7092    2.3333   45.9708 C   0  0  0  0  0  0
   25.6684    4.4986   45.5608 C   0  0  0  0  0  0
   25.5708    3.1618   45.9935 C   0  0  0  0  0  0
   27.8724    4.0854   41.8599 H   0  0  0  0  0  0
   30.5723    4.7164   42.7065 H   0  0  0  0  0  0
   29.3592    5.7750   44.5490 H   0  0  0  0  0  0
   30.1588    4.3483   45.1228 H   0  0  0  0  0  0
   28.8047    2.1920   45.5049 H   0  0  0  0  0  0
   26.9547    6.0153   44.7223 H   0  0  0  0  0  0
   26.6509    1.3057   46.2940 H   0  0  0  0  0  0
   24.7982    5.1375   45.5850 H   0  0  0  0  0  0
   24.6269    2.7737   46.3463 H   0  0  0  0  0  0
   28.8818    2.0353   42.2379 N   0  0  0  0  0  0
   28.7579    0.5860   42.2319 C   0  0  0  0  0  0
   27.3644    0.1806   42.7101 C   0  0  0  0  0  0
   26.3763    0.8069   42.3277 O   0  0  0  0  0  0
   28.0933    2.5354   41.8538 H   0  0  0  0  0  0
   29.5076    0.1254   42.8674 H   0  0  0  0  0  0
   28.9149    0.2128   41.2197 H   0  0  0  0  0  0
   27.2860   -0.8902   43.5144 N   0  0  0  0  0  0
   26.0444   -1.5096   43.9806 C   0  0  0  0  0  0
   26.1356   -1.8983   45.4644 C   0  0  0  0  0  0
   27.1895   -2.3434   45.9174 O   0  0  0  0  0  0
   25.7720   -2.3673   43.3653 H   0  0  0  0  0  0
   28.1479   -1.3411   43.7950 H   0  0  0  0  0  0
   25.2562   -0.7613   43.9141 H   0  0  0  0  0  0
   25.0085   -1.7893   46.1893 N   0  0  0  0  0  0
   24.7979   -2.3599   47.5221 C   0  0  2  0  0  0
   23.7504   -3.4732   47.3602 C   0  0  0  0  0  0
   22.6512   -3.2167   46.8716 O   0  0  0  0  0  0
   24.2947   -1.2817   48.5268 C   0  0  0  0  0  0
   24.1999   -1.8323   49.9644 C   0  0  0  0  0  0
   25.1740   -0.0214   48.5343 C   0  0  0  0  0  0
   24.1908   -1.4049   45.7328 H   0  0  0  0  0  0
   25.7252   -2.7811   47.9078 H   0  0  0  0  0  0
   23.2926   -0.9649   48.2311 H   0  0  0  0  0  0
   23.7989   -1.0841   50.6489 H   0  0  0  0  0  0
   23.5516   -2.7036   50.0265 H   0  0  0  0  0  0
   25.1805   -2.1296   50.3384 H   0  0  0  0  0  0
   24.8689    0.6707   49.3200 H   0  0  0  0  0  0
   26.2242   -0.2666   48.6949 H   0  0  0  0  0  0
   25.0845    0.5138   47.5920 H   0  0  0  0  0  0
   24.0949   -4.6979   47.7792 N   0  0  0  0  0  0
   23.2151   -5.8639   47.8325 C   0  0  0  0  0  0
   22.7768   -6.1250   49.2795 C   0  0  0  0  0  0
   23.3759   -5.6279   50.2287 O   0  0  0  0  0  0
   23.7538   -6.7304   47.4467 H   0  0  0  0  0  0
   25.0298   -4.8201   48.1512 H   0  0  0  0  0  0
   22.3322   -5.7137   47.2189 H   0  0  0  0  0  0
   21.7333   -6.9488   49.4086 N   0  0  0  0  0  0
   21.1925   -7.5706   50.6088 C   0  0  0  0  0  0
   21.4003   -8.6433   50.5907 H   0  0  0  0  0  0
   19.6758   -7.2650   50.6132 C   0  0  0  0  0  0
   18.7859   -8.1349   51.5136 C   0  0  0  0  0  0
   17.3242   -7.6602   51.4951 C   0  0  0  0  0  0
   16.3414   -8.7293   51.9902 C   0  0  0  0  0  0
   16.5955   -9.0970   53.3936 N   0  3  0  0  0  0
   21.3008   -7.2549   48.5450 H   0  0  0  0  0  0
   21.6618   -7.1739   51.5108 H   0  0  0  0  0  0
   19.2825   -7.3386   49.5985 H   0  0  0  0  0  0
   19.5440   -6.2267   50.9033 H   0  0  0  0  0  0
   19.1702   -8.1334   52.5345 H   0  0  0  0  0  0
   18.8182   -9.1682   51.1663 H   0  0  0  0  0  0
   17.0435   -7.3963   50.4744 H   0  0  0  0  0  0
   17.2231   -6.7458   52.0816 H   0  0  0  0  0  0
   16.4071   -9.6238   51.3693 H   0  0  0  0  0  0
   15.3187   -8.3598   51.9082 H   0  0  0  0  0  0
   16.4994   -8.2811   53.9811 H   0  0  0  0  0  0
   15.9308   -9.8000   53.6850 H   0  0  0  0  0  0
   17.5321   -9.4655   53.4815 H   0  0  0  0  0  0
   23.3372   -9.0890   56.1068 H   0  0  0  0  0  0
   24.1775   -8.4634   55.8091 C   0  0  0  0  0  0
   23.8167   -7.6063   54.5940 C   0  0  0  0  0  0
   22.9597   -7.9735   53.7893 O   0  0  0  0  0  0
   25.4755   -9.2874   55.5922 C   0  0  0  0  0  0
   26.0281   -9.8703   56.8992 C   0  0  0  0  0  0
   25.3505  -10.3768   54.5108 C   0  0  0  0  0  0
   24.3760   -7.7445   56.6029 H   0  0  0  0  0  0
   26.2302   -8.5859   55.2379 H   0  0  0  0  0  0
   27.0599  -10.2011   56.7795 H   0  0  0  0  0  0
   25.9986   -9.1291   57.6957 H   0  0  0  0  0  0
   25.4519  -10.7268   57.2330 H   0  0  0  0  0  0
   26.3062  -10.8734   54.3445 H   0  0  0  0  0  0
   24.6294  -11.1393   54.8017 H   0  0  0  0  0  0
   25.0314   -9.9659   53.5530 H   0  0  0  0  0  0
   24.5310   -6.4803   54.4639 N   0  0  0  0  0  0
   24.6072   -5.6560   53.2676 C   0  0  2  0  0  0
   26.0200   -5.7879   52.6860 C   0  0  0  0  0  0
   26.9992   -5.7434   53.4318 O   0  0  0  0  0  0
   24.3352   -4.1987   53.6466 C   0  0  0  0  0  0
   25.2064   -6.2712   55.1890 H   0  0  0  0  0  0
   23.8648   -5.9850   52.5462 H   0  0  0  0  0  0
   24.4140   -3.5392   52.7812 H   0  0  0  0  0  0
   23.3233   -4.1027   54.0379 H   0  0  0  0  0  0
   25.0278   -3.8399   54.4095 H   0  0  0  0  0  0
   26.1123   -5.9687   51.3589 N   0  0  0  0  0  0
   27.3489   -6.2431   50.6244 C   0  0  2  0  0  0
   27.5346   -5.1167   49.5908 C   0  0  0  0  0  0
   26.7330   -5.0125   48.6672 O   0  0  0  0  0  0
   27.2820   -7.6545   49.9642 C   0  0  2  0  0  0
   26.9149   -8.7980   50.9459 C   0  0  0  0  0  0
   28.5908   -7.9969   49.2229 C   0  0  0  0  0  0
   26.2821  -10.0130   50.2517 C   0  0  0  0  0  0
   25.2545   -5.9599   50.8222 H   0  0  0  0  0  0
   28.1899   -6.2475   51.3107 H   0  0  0  0  0  0
   26.4957   -7.6229   49.2182 H   0  0  0  0  0  0
   26.1979   -8.4692   51.6958 H   0  0  0  0  0  0
   27.7986   -9.1055   51.5061 H   0  0  0  0  0  0
   28.5439   -8.9789   48.7541 H   0  0  0  0  0  0
   28.8138   -7.2837   48.4292 H   0  0  0  0  0  0
   29.4367   -8.0031   49.9101 H   0  0  0  0  0  0
   26.0667  -10.8001   50.9751 H   0  0  0  0  0  0
   25.3407   -9.7424   49.7725 H   0  0  0  0  0  0
   26.9371  -10.4347   49.4908 H   0  0  0  0  0  0
   28.5790   -4.2851   49.7352 N   0  0  0  0  0  0
   28.8758   -3.1363   48.8715 C   0  0  2  0  0  0
   30.1335   -3.4231   48.0364 C   0  0  0  0  0  0
   31.1776   -3.7535   48.5920 O   0  0  0  0  0  0
   29.0777   -1.9017   49.7766 C   0  0  0  0  0  0
   29.4237   -0.5810   49.0606 C   0  0  0  0  0  0
   29.4978    0.5961   50.0499 C   0  0  0  0  0  0
   29.9937    1.9037   49.4149 C   0  0  0  0  0  0
   30.0897    2.9879   50.4112 N   0  3  0  0  0  0
   29.2167   -4.4571   50.5027 H   0  0  0  0  0  0
   28.0404   -2.9319   48.2058 H   0  0  0  0  0  0
   29.8580   -2.1114   50.5044 H   0  0  0  0  0  0
   28.1641   -1.7509   50.3537 H   0  0  0  0  0  0
   28.6819   -0.3697   48.2895 H   0  0  0  0  0  0
   30.3827   -0.6769   48.5502 H   0  0  0  0  0  0
   30.1584    0.3320   50.8766 H   0  0  0  0  0  0
   28.5114    0.7564   50.4876 H   0  0  0  0  0  0
   29.3216    2.2165   48.6152 H   0  0  0  0  0  0
   30.9792    1.7571   48.9715 H   0  0  0  0  0  0
   30.7475    2.7340   51.1431 H   0  0  0  0  0  0
   30.4225    3.8314   49.9672 H   0  0  0  0  0  0
   29.1875    3.1718   50.8277 H   0  0  0  0  0  0
   30.0302   -3.2545   46.7091 N   0  0  0  0  0  0
   31.0848   -3.4644   45.7106 C   0  0  0  0  0  0
   30.9995   -2.7422   44.8989 H   0  0  0  0  0  0
   31.0366   -4.4757   45.3050 H   0  0  0  0  0  0
   29.1368   -2.9482   46.3453 H   0  0  0  0  0  0
   32.0521   -3.3236   46.1976 H   0  0  0  0  0  0
   37.6881    1.3687   48.6543 H   0  0  0  0  0  0
   37.1686    0.6026   49.2307 C   0  0  0  0  0  0
   37.8429    0.2349   50.0047 H   0  0  0  0  0  0
   36.6306   -0.5401   48.3151 C   0  0  0  0  0  0
   35.4657    0.0045   47.4573 C   0  0  0  0  0  0
   36.1576   -1.7659   49.1355 C   0  0  0  0  0  0
   34.7437   -1.0359   46.5950 C   0  0  0  0  0  0
   36.3057    1.0775   49.7021 H   0  0  0  0  0  0
   37.4278   -0.8716   47.6478 H   0  0  0  0  0  0
   35.8321    0.7995   46.8089 H   0  0  0  0  0  0
   34.7236    0.4714   48.1062 H   0  0  0  0  0  0
   35.6692   -2.5361   48.5447 H   0  0  0  0  0  0
   36.9813   -2.2745   49.6367 H   0  0  0  0  0  0
   35.4545   -1.4367   49.8930 H   0  0  0  0  0  0
   33.9907   -0.5403   45.9866 H   0  0  0  0  0  0
   35.4417   -1.5651   45.9472 H   0  0  0  0  0  0
   34.1981   -1.7695   47.1871 H   0  0  0  0  0  0
   37.7441    2.6355   53.2579 H   0  0  0  0  0  0
   36.7612    2.5867   53.7247 C   0  0  0  0  0  0
   36.6390    1.3239   54.6081 C   0  0  0  0  0  0
   35.9854    1.3763   55.6469 O   0  0  0  0  0  0
   35.6307    2.6489   52.6722 C   0  0  0  0  0  0
   34.2011    2.6160   53.2670 C   0  0  0  0  0  0
   33.0789    2.8498   52.2504 C   0  0  0  0  0  0
   33.3772    3.2319   51.0978 O   0  0  0  0  0  0
   31.9115    2.6388   52.6466 O   0  5  0  0  0  0
   36.6524    3.4684   54.3552 H   0  0  0  0  0  0
   35.7386    1.8299   51.9611 H   0  0  0  0  0  0
   35.7571    3.5660   52.0948 H   0  0  0  0  0  0
   34.1090    3.3779   54.0419 H   0  0  0  0  0  0
   34.0096    1.6563   53.7480 H   0  0  0  0  0  0
   37.3127    0.2167   54.2463 N   0  0  0  0  0  0
   37.3801   -1.0188   55.0285 C   0  0  0  0  0  0
   37.9434   -0.8506   55.9494 H   0  0  0  0  0  0
   38.0173   -2.1401   54.1880 C   0  0  0  0  0  0
   37.7997    0.2308   53.3595 H   0  0  0  0  0  0
   36.3697   -1.3128   55.3192 H   0  0  0  0  0  0
   37.9556   -3.0969   54.7084 H   0  0  0  0  0  0
   37.5234   -2.2660   53.2279 H   0  0  0  0  0  0
   39.0707   -1.9497   53.9838 H   0  0  0  0  0  0
   38.6096    2.2492   58.3503 H   0  0  0  0  0  0
   38.1289    2.9373   59.0469 C   0  0  0  0  0  0
   37.2879    2.4592   59.5283 H   0  0  0  0  0  0
   37.7057    4.2782   58.3868 C   0  0  0  0  0  0
   38.9111    5.1876   58.1174 C   0  0  0  0  0  0
   36.8906    4.0970   57.1037 C   0  0  0  0  0  0
   38.8116    3.1662   59.8674 H   0  0  0  0  0  0
   37.0737    4.8215   59.0923 H   0  0  0  0  0  0
   38.6041    6.1363   57.6752 H   0  0  0  0  0  0
   39.4118    5.4195   59.0534 H   0  0  0  0  0  0
   39.6324    4.7231   57.4445 H   0  0  0  0  0  0
   36.7667    5.0392   56.5740 H   0  0  0  0  0  0
   37.3995    3.4279   56.4235 H   0  0  0  0  0  0
   35.9067    3.6772   57.3051 H   0  0  0  0  0  0
   35.8249    1.2207   58.9619 H   0  0  0  0  0  0
   34.9747    0.6949   59.3727 C   0  0  0  0  0  0
   35.3260   -0.1395   59.9794 H   0  0  0  0  0  0
   34.1060    0.2395   58.1851 C   0  0  0  0  0  0
   33.3301    1.3885   57.5327 C   0  0  0  0  0  0
   32.0400    0.8505   56.3803 S   0  0  0  0  0  0
   30.7063    0.5494   57.5709 C   0  0  0  0  0  0
   34.3766    1.3712   59.9832 H   0  0  0  0  0  0
   33.3538   -0.4578   58.5529 H   0  0  0  0  0  0
   34.6960   -0.3008   57.4433 H   0  0  0  0  0  0
   34.0064    2.0575   57.0054 H   0  0  0  0  0  0
   32.8585    1.9941   58.3051 H   0  0  0  0  0  0
   29.7697    0.3650   57.0475 H   0  0  0  0  0  0
   30.9354   -0.3045   58.2085 H   0  0  0  0  0  0
   30.5556    1.4260   58.2008 H   0  0  0  0  0  0
   27.8785    3.5589   65.1626 H   0  0  0  0  0  0
   28.4782    3.4981   64.2556 C   0  0  0  0  0  0
   28.3257    2.1268   63.5813 C   0  0  0  0  0  0
   28.3565    1.0946   64.2530 O   0  0  0  0  0  0
   29.5236    3.6937   64.4963 H   0  0  0  0  0  0
   28.1237    4.2419   63.5389 H   0  0  0  0  0  0
   28.1833    2.1209   62.2465 N   0  0  0  0  0  0
   28.1410    0.9184   61.4182 C   0  0  2  0  0  0
   29.5538    0.3342   61.3030 C   0  0  0  0  0  0
   30.4981    1.0404   60.9454 O   0  0  0  0  0  0
   27.6281    1.2732   60.0091 C   0  0  0  0  0  0
   25.8239    1.4381   60.0636 S   0  0  0  0  0  0
   28.1601    3.0105   61.7626 H   0  0  0  0  0  0
   27.4801    0.1779   61.8747 H   0  0  0  0  0  0
   27.8588    0.4797   59.2961 H   0  0  0  0  0  0
   28.0825    2.1872   59.6245 H   0  0  0  0  0  0
   25.8087    2.4706   60.9116 H   0  0  0  0  0  0
   29.6751   -0.9558   61.6394 N   0  0  0  0  0  0
   30.9269   -1.6954   61.7132 C   0  0  0  0  0  0
   30.9982   -2.7226   60.5759 C   0  0  0  0  0  0
   29.9904   -3.3200   60.1904 O   0  0  0  0  0  0
   31.0090   -2.2055   62.6729 H   0  0  0  0  0  0
   28.8399   -1.4583   61.9019 H   0  0  0  0  0  0
   31.7770   -1.0157   61.6246 H   0  0  0  0  0  0
   32.2249   -2.9400   60.0804 N   0  0  0  0  0  0
   32.5806   -3.9399   59.0823 C   0  0  2  0  0  0
   32.6399   -5.3221   59.7519 C   0  0  0  0  0  0
   33.3549   -5.5086   60.7374 O   0  0  0  0  0  0
   33.9840   -3.5757   58.5491 C   0  0  0  0  0  0
   34.3974   -4.3017   57.2574 C   0  0  0  0  0  0
   33.7504   -3.6688   56.0151 C   0  0  0  0  0  0
   35.9224   -4.3271   57.1272 C   0  0  0  0  0  0
   32.9881   -2.4017   60.4682 H   0  0  0  0  0  0
   31.8540   -3.9390   58.2719 H   0  0  0  0  0  0
   34.7262   -3.7564   59.3289 H   0  0  0  0  0  0
   34.0442   -2.5094   58.3563 H   0  0  0  0  0  0
   34.0695   -5.3355   57.3126 H   0  0  0  0  0  0
   34.0521   -4.1912   55.1068 H   0  0  0  0  0  0
   32.6628   -3.7113   56.0650 H   0  0  0  0  0  0
   34.0361   -2.6217   55.9099 H   0  0  0  0  0  0
   36.2264   -4.8558   56.2297 H   0  0  0  0  0  0
   36.3264   -3.3193   57.0714 H   0  0  0  0  0  0
   36.3850   -4.8338   57.9744 H   0  0  0  0  0  0
   31.9111   -6.2937   59.1848 N   0  0  0  0  0  0
   31.9761   -7.7084   59.5574 C   0  0  0  0  0  0
   33.1376   -8.4110   58.8323 C   0  0  0  0  0  0
   33.6577   -9.4033   59.3410 O   0  0  0  0  0  0
   31.0404   -8.2077   59.3078 H   0  0  0  0  0  0
   31.3580   -6.0611   58.3697 H   0  0  0  0  0  0
   32.1336   -7.8155   60.6313 H   0  0  0  0  0  0
   33.5656   -7.8727   57.6809 N   0  0  0  0  0  0
   34.7322   -8.3096   56.9357 C   0  0  0  0  0  0
   34.6855   -7.8526   55.4804 C   0  0  0  0  0  0
   33.8507   -7.0329   55.0953 O   0  0  0  0  0  0
   33.0679   -7.0732   57.3138 H   0  0  0  0  0  0
   34.7990   -9.3954   56.9601 H   0  0  0  0  0  0
   35.6305   -7.9102   57.4085 H   0  0  0  0  0  0
   35.6039   -8.4069   54.6791 N   0  0  0  0  0  0
   35.7098   -8.2141   53.2360 C   0  0  0  0  0  0
   35.7735   -9.1746   52.7222 H   0  0  0  0  0  0
   36.8912   -7.2800   52.8514 C   0  0  2  0  0  0
   38.2834   -7.8525   53.2084 C   0  0  0  0  0  0
   36.7020   -5.8677   53.4220 C   0  0  0  0  0  0
   39.4483   -7.0435   52.6234 C   0  0  0  0  0  0
   36.2538   -9.0632   55.0929 H   0  0  0  0  0  0
   34.7917   -7.7384   52.9015 H   0  0  0  0  0  0
   36.8576   -7.1749   51.7657 H   0  0  0  0  0  0
   38.3748   -8.8706   52.8312 H   0  0  0  0  0  0
   38.3933   -7.9210   54.2913 H   0  0  0  0  0  0
   37.3368   -5.1387   52.9182 H   0  0  0  0  0  0
   35.6717   -5.5347   53.3162 H   0  0  0  0  0  0
   36.9509   -5.8505   54.4790 H   0  0  0  0  0  0
   40.3983   -7.5439   52.8102 H   0  0  0  0  0  0
   39.3423   -6.9265   51.5450 H   0  0  0  0  0  0
   39.5094   -6.0479   53.0622 H   0  0  0  0  0  0
   34.2463   -6.5309   48.0761 H   0  0  0  0  0  0
   33.2632   -6.4274   48.5350 C   0  0  0  0  0  0
   33.4616   -6.1213   50.0270 C   0  0  0  0  0  0
   34.1856   -6.8486   50.7037 O   0  0  0  0  0  0
   32.4348   -7.7248   48.3984 C   0  0  0  0  0  0
   32.3879   -8.3072   46.9697 C   0  0  0  0  0  0
   31.3393   -9.4113   46.8348 C   0  0  0  0  0  0
   30.2005   -9.1589   46.4531 O   0  0  0  0  0  0
   31.7255  -10.6527   47.1267 N   0  0  0  0  0  0
   32.7438   -5.6128   48.0329 H   0  0  0  0  0  0
   31.4205   -7.5137   48.7367 H   0  0  0  0  0  0
   32.8191   -8.4913   49.0706 H   0  0  0  0  0  0
   33.3642   -8.7025   46.6844 H   0  0  0  0  0  0
   32.1583   -7.5278   46.2455 H   0  0  0  0  0  0
   31.0762  -11.4187   47.0179 H   0  0  0  0  0  0
   32.6750  -10.8304   47.4238 H   0  0  0  0  0  0
   32.8010   -5.0755   50.5430 N   0  0  0  0  0  0
   32.6754   -4.7798   51.9723 C   0  0  2  0  0  0
   31.3949   -5.4650   52.4642 C   0  0  0  0  0  0
   30.3652   -5.3574   51.8022 O   0  0  0  0  0  0
   32.4481   -3.2626   52.1741 C   0  0  0  0  0  0
   33.5779   -2.3333   51.7098 C   0  0  0  0  0  0
   33.1072   -0.8700   51.6808 C   0  0  0  0  0  0
   34.8310   -2.4615   52.5800 C   0  0  0  0  0  0
   32.2329   -4.5215   49.9130 H   0  0  0  0  0  0
   33.5403   -5.1259   52.5386 H   0  0  0  0  0  0
   32.2475   -3.0592   53.2276 H   0  0  0  0  0  0
   31.5503   -2.9729   51.6312 H   0  0  0  0  0  0
   33.8312   -2.6141   50.6889 H   0  0  0  0  0  0
   33.9019   -0.2021   51.3462 H   0  0  0  0  0  0
   32.2690   -0.7424   50.9963 H   0  0  0  0  0  0
   32.7866   -0.5330   52.6674 H   0  0  0  0  0  0
   35.5874   -1.7509   52.2545 H   0  0  0  0  0  0
   34.6160   -2.2486   53.6260 H   0  0  0  0  0  0
   35.2664   -3.4558   52.5104 H   0  0  0  0  0  0
   31.4455   -6.1297   53.6271 N   0  0  0  0  0  0
   30.3002   -6.7703   54.2727 C   0  0  2  0  0  0
   30.1032   -6.0913   55.6352 C   0  0  0  0  0  0
   31.0316   -6.0191   56.4390 O   0  0  0  0  0  0
   30.4953   -8.3146   54.3716 C   0  0  2  0  0  0
   30.6631   -8.9860   52.9843 C   0  0  0  0  0  0
   29.3142   -8.9940   55.0965 C   0  0  0  0  0  0
   32.1137   -9.1244   52.5115 C   0  0  0  0  0  0
   32.3296   -6.1851   54.1172 H   0  0  0  0  0  0
   29.3974   -6.6016   53.6860 H   0  0  0  0  0  0
   31.3883   -8.5177   54.9655 H   0  0  0  0  0  0
   30.0796   -8.4483   52.2368 H   0  0  0  0  0  0
   30.2462   -9.9941   53.0045 H   0  0  0  0  0  0
   29.4718  -10.0687   55.1922 H   0  0  0  0  0  0
   29.1664   -8.6122   56.1047 H   0  0  0  0  0  0
   28.3878   -8.8454   54.5429 H   0  0  0  0  0  0
   32.1504   -9.6163   51.5402 H   0  0  0  0  0  0
   32.5981   -8.1587   52.4019 H   0  0  0  0  0  0
   32.7031   -9.7199   53.2085 H   0  0  0  0  0  0
   28.8784   -5.6083   55.8775 N   0  0  0  0  0  0
   28.3966   -4.9798   57.1085 C   0  0  2  0  0  0
   27.0663   -5.6214   57.5162 C   0  0  0  0  0  0
   26.4668   -6.3700   56.7457 O   0  0  0  0  0  0
   28.2716   -3.4453   56.9271 C   0  0  2  0  0  0
   27.3397   -3.1323   55.9080 O   0  0  0  0  0  0
   29.5998   -2.7250   56.6733 C   0  0  0  0  0  0
   28.1888   -5.7022   55.1425 H   0  0  0  0  0  0
   29.1016   -5.1752   57.9181 H   0  0  0  0  0  0
   27.8588   -3.0182   57.8423 H   0  0  0  0  0  0
   27.1717   -2.2005   55.9333 H   0  0  0  0  0  0
   29.4221   -1.6972   56.3671 H   0  0  0  0  0  0
   30.2038   -2.6915   57.5756 H   0  0  0  0  0  0
   30.1921   -3.1998   55.8936 H   0  0  0  0  0  0
   26.5860   -5.2839   58.7225 N   0  0  0  0  0  0
   25.2454   -5.5985   59.2132 C   0  0  2  0  0  0
   24.1868   -4.8939   58.3486 C   0  0  0  0  0  0
   24.3334   -3.7067   58.0565 O   0  0  0  0  0  0
   25.1538   -5.1185   60.6805 C   0  0  0  0  0  0
   23.7539   -5.2453   61.3195 C   0  0  0  0  0  0
   23.7068   -4.7297   62.7542 C   0  0  0  0  0  0
   24.1922   -3.6392   63.0445 O   0  0  0  0  0  0
   23.1091   -5.5081   63.6571 N   0  0  0  0  0  0
   27.1455   -4.6704   59.2969 H   0  0  0  0  0  0
   25.0943   -6.6791   59.1707 H   0  0  0  0  0  0
   25.4733   -4.0755   60.7323 H   0  0  0  0  0  0
   25.8718   -5.6809   61.2799 H   0  0  0  0  0  0
   23.4077   -6.2788   61.2691 H   0  0  0  0  0  0
   23.0346   -4.6400   60.7756 H   0  0  0  0  0  0
   23.0687   -5.2195   64.6225 H   0  0  0  0  0  0
   22.7232   -6.3980   63.3758 H   0  0  0  0  0  0
   23.1105   -5.6145   57.9884 N   0  0  0  0  0  0
   21.9428   -5.0624   57.3026 C   0  0  2  0  0  0
   21.1771   -4.1526   58.2725 C   0  0  0  0  0  0
   20.9589   -4.5147   59.4284 O   0  0  0  0  0  0
   21.0231   -6.2169   56.8429 C   0  0  0  0  0  0
   19.8100   -5.8101   55.9709 C   0  0  0  0  0  0
   20.2348   -5.3062   54.5814 C   0  0  0  0  0  0
   18.8297   -6.9832   55.8288 C   0  0  0  0  0  0
   23.0628   -6.5836   58.2737 H   0  0  0  0  0  0
   22.2907   -4.4973   56.4373 H   0  0  0  0  0  0
   20.6640   -6.7481   57.7251 H   0  0  0  0  0  0
   21.6096   -6.9425   56.2844 H   0  0  0  0  0  0
   19.2615   -5.0078   56.4649 H   0  0  0  0  0  0
   19.3665   -5.0361   53.9799 H   0  0  0  0  0  0
   20.8639   -4.4211   54.6468 H   0  0  0  0  0  0
   20.7915   -6.0678   54.0342 H   0  0  0  0  0  0
   17.9665   -6.7026   55.2248 H   0  0  0  0  0  0
   19.3062   -7.8416   55.3535 H   0  0  0  0  0  0
   18.4567   -7.3025   56.8023 H   0  0  0  0  0  0
   20.7749   -2.9788   57.7767 N   0  0  0  0  0  0
   20.0047   -1.9629   58.4798 C   0  0  2  0  0  0
   18.6602   -1.8857   57.7283 C   0  0  0  0  0  0
   18.5680   -1.1228   56.7655 O   0  0  0  0  0  0
   20.8052   -0.6412   58.4355 C   0  0  0  0  0  0
   22.2176   -0.7467   59.0513 C   0  0  0  0  0  0
   22.2777   -1.0557   60.8337 S   0  0  0  0  0  0
   21.9427    0.6266   61.4027 C   0  0  0  0  0  0
   21.0145   -2.7678   56.8154 H   0  0  0  0  0  0
   19.8484   -2.2203   59.5268 H   0  0  0  0  0  0
   20.2385    0.1365   58.9453 H   0  0  0  0  0  0
   20.9154   -0.3038   57.4037 H   0  0  0  0  0  0
   22.7708    0.1713   58.8687 H   0  0  0  0  0  0
   22.7931   -1.5266   58.5555 H   0  0  0  0  0  0
   21.8842    0.6547   62.4864 H   0  0  0  0  0  0
   22.7321    1.2994   61.0756 H   0  0  0  0  0  0
   21.0005    0.9886   60.9995 H   0  0  0  0  0  0
   17.6580   -2.7331   58.0840 N   0  0  0  0  0  0
   16.4670   -3.0466   57.2677 C   0  0  2  0  0  0
   15.6315   -1.8693   56.7443 C   0  0  0  0  0  0
   15.0339   -1.9857   55.6766 O   0  0  0  0  0  0
   15.5683   -3.9077   58.1693 C   0  0  0  0  0  0
   16.5087   -4.5558   59.1582 C   0  0  0  0  0  0
   17.6691   -3.5774   59.2837 C   0  0  0  0  0  0
   16.8078   -3.6416   56.4188 H   0  0  0  0  0  0
   14.9922   -4.6411   57.6044 H   0  0  0  0  0  0
   14.8566   -3.2934   58.7244 H   0  0  0  0  0  0
   16.8725   -5.4966   58.7424 H   0  0  0  0  0  0
   16.0362   -4.7757   60.1159 H   0  0  0  0  0  0
   17.5278   -2.9431   60.1560 H   0  0  0  0  0  0
   18.5848   -4.1383   59.4184 H   0  0  0  0  0  0
   15.5740   -0.7640   57.5012 N   0  0  0  0  0  0
   14.7170    0.3928   57.2408 C   0  0  2  0  0  0
   15.4414    1.4980   56.4447 C   0  0  0  0  0  0
   14.8908    2.5874   56.2833 O   0  0  0  0  0  0
   14.2485    0.9357   58.6050 C   0  0  0  0  0  0
   13.3513   -0.0248   59.3617 C   0  0  0  0  0  0
   13.9062   -0.9087   60.3099 C   0  0  0  0  0  0
   11.9677   -0.0639   59.0945 C   0  0  0  0  0  0
   13.0858   -1.8365   60.9790 C   0  0  0  0  0  0
   11.1450   -0.9856   59.7704 C   0  0  0  0  0  0
   11.7038   -1.8734   60.7105 C   0  0  0  0  0  0
   16.1169   -0.7434   58.3531 H   0  0  0  0  0  0
   13.8397    0.0948   56.6646 H   0  0  0  0  0  0
   13.7114    1.8777   58.4922 H   0  0  0  0  0  0
   15.1105    1.1470   59.2296 H   0  0  0  0  0  0
   14.9670   -0.8874   60.5077 H   0  0  0  0  0  0
   11.5360    0.6040   58.3635 H   0  0  0  0  0  0
   13.5179   -2.5181   61.6967 H   0  0  0  0  0  0
   10.0855   -1.0150   59.5630 H   0  0  0  0  0  0
   11.0725   -2.5830   61.2244 H   0  0  0  0  0  0
   16.6440    1.2136   55.9127 N   0  0  0  0  0  0
   17.4014    2.0790   55.0126 C   0  0  0  0  0  0
   17.9947    3.3104   55.6955 C   0  0  0  0  0  0
   18.1714    3.3209   56.9136 O   0  0  0  0  0  0
   17.0341    0.2994   56.0980 H   0  0  0  0  0  0
   16.7588    2.3902   54.1878 H   0  0  0  0  0  0
   18.2179    1.4989   54.5858 H   0  0  0  0  0  0
   18.3108    4.3448   54.8974 N   0  0  0  0  0  0
   18.8064    5.6295   55.3892 C   0  0  2  0  0  0
   17.6848    6.4613   56.0301 C   0  0  0  0  0  0
   16.5211    6.3825   55.6322 O   0  0  0  0  0  0
   19.5222    6.4132   54.2678 C   0  0  0  0  0  0
   18.4303    7.0860   52.9794 S   0  0  0  0  0  0
   18.1345    4.2629   53.9070 H   0  0  0  0  0  0
   19.5463    5.4226   56.1558 H   0  0  0  0  0  0
   20.2822    5.7899   53.7957 H   0  0  0  0  0  0
   20.0515    7.2522   54.7168 H   0  0  0  0  0  0
   17.9482    5.9147   52.5556 H   0  0  0  0  0  0
   18.0649    7.2537   57.0405 N   0  0  0  0  0  0
   17.1822    8.0434   57.8862 C   0  0  0  0  0  0
   16.5298    9.2203   57.1350 C   0  0  0  0  0  0
   15.4345    9.6177   57.5204 O   0  0  0  0  0  0
   17.7228    8.4071   58.7596 H   0  0  0  0  0  0
   19.0457    7.2483   57.2962 H   0  0  0  0  0  0
   16.3968    7.3708   58.2251 H   0  0  0  0  0  0
   17.1411    9.7323   56.0472 N   0  0  0  0  0  0
   16.5876   10.7870   55.1889 C   0  0  2  0  0  0
   15.2837   10.3467   54.5054 C   0  0  0  0  0  0
   14.2617   11.0089   54.6677 O   0  0  0  0  0  0
   17.6333   11.2240   54.1359 C   0  0  0  0  0  0
   17.1819   12.3286   53.1471 C   0  0  0  0  0  0
   16.7168   13.6076   53.8627 C   0  0  0  0  0  0
   18.3035   12.6494   52.1508 C   0  0  0  0  0  0
   18.0416    9.3523   55.7917 H   0  0  0  0  0  0
   16.3676   11.6381   55.8348 H   0  0  0  0  0  0
   17.9595   10.3511   53.5675 H   0  0  0  0  0  0
   18.5183   11.5811   54.6546 H   0  0  0  0  0  0
   16.3433   11.9565   52.5574 H   0  0  0  0  0  0
   16.4515   14.3874   53.1485 H   0  0  0  0  0  0
   15.8336   13.4174   54.4697 H   0  0  0  0  0  0
   17.4920   14.0056   54.5166 H   0  0  0  0  0  0
   17.9811   13.3900   51.4189 H   0  0  0  0  0  0
   19.1828   13.0462   52.6603 H   0  0  0  0  0  0
   18.6081   11.7574   51.6028 H   0  0  0  0  0  0
   15.3076    9.2230   53.7707 N   0  0  0  0  0  0
   14.1242    8.6629   53.1110 C   0  0  2  0  0  0
   13.1538    7.9969   54.0985 C   0  0  0  0  0  0
   11.9709    7.8796   53.7766 O   0  0  0  0  0  0
   14.5403    7.6547   52.0173 C   0  0  0  0  0  0
   15.3111    8.2999   50.8583 C   0  0  0  0  0  0
   16.2866    7.6659   50.4032 O   0  0  0  0  0  0
   14.9062    9.4077   50.4342 O   0  5  0  0  0  0
   16.1779    8.7188   53.6754 H   0  0  0  0  0  0
   13.5685    9.4723   52.6407 H   0  0  0  0  0  0
   13.6589    7.1752   51.5894 H   0  0  0  0  0  0
   15.1442    6.8565   52.4528 H   0  0  0  0  0  0
   13.6122    7.6372   55.3131 N   0  0  0  0  0  0
   12.7510    7.1596   56.3910 C   0  0  2  0  0  0
   11.8561    8.2943   56.9255 C   0  0  0  0  0  0
   10.6535    8.0749   57.0563 O   0  0  0  0  0  0
   13.5924    6.5548   57.5349 C   0  0  0  0  0  0
   12.7505    5.8447   58.5802 C   0  0  0  0  0  0
   12.3445    4.5114   58.3666 C   0  0  0  0  0  0
   12.3088    6.5368   59.7284 C   0  0  0  0  0  0
   11.4661    3.8882   59.2733 C   0  0  0  0  0  0
   11.4215    5.9170   60.6281 C   0  0  0  0  0  0
   10.9874    4.5985   60.3910 C   0  0  0  0  0  0
   10.0903    4.0147   61.2347 O   0  0  0  0  0  0
   14.5975    7.7467   55.5096 H   0  0  0  0  0  0
   12.1113    6.3731   55.9841 H   0  0  0  0  0  0
   14.1765    7.3301   58.0261 H   0  0  0  0  0  0
   14.3100    5.8378   57.1335 H   0  0  0  0  0  0
   12.6777    3.9750   57.4899 H   0  0  0  0  0  0
   12.6137    7.5592   59.8996 H   0  0  0  0  0  0
   11.1344    2.8766   59.0935 H   0  0  0  0  0  0
   11.0608    6.4634   61.4869 H   0  0  0  0  0  0
    9.7935    4.5930   61.9201 H   0  0  0  0  0  0
   12.4051    9.4982   57.1980 N   0  0  0  0  0  0
   11.6178   10.6456   57.6724 C   0  0  0  0  0  0
   10.6712   11.2238   56.6004 C   0  0  0  0  0  0
    9.6634   11.8294   56.9628 O   0  0  0  0  0  0
   12.2631   11.4235   58.0791 H   0  0  0  0  0  0
   13.4014    9.6258   57.0749 H   0  0  0  0  0  0
   10.9712   10.2714   58.4576 H   0  0  0  0  0  0
   10.9601   11.0035   55.3044 N   0  0  0  0  0  0
   10.1372   11.4506   54.1797 C   0  0  2  0  0  0
    8.9047   10.5631   53.9607 C   0  0  0  0  0  0
    7.8454   11.1008   53.6493 O   0  0  0  0  0  0
   10.9623   11.4035   52.8805 C   0  0  0  0  0  0
   11.9915   12.5317   52.7671 C   0  0  0  0  0  0
   12.8885   12.3510   51.5383 C   0  0  0  0  0  0
   13.7424   13.5200   51.3155 N   0  0  0  0  0  0
   14.7788   13.5788   50.4651 C   0  0  0  0  0  0
   15.1619   12.5079   49.7534 N   0  0  0  0  0  0
   15.4406   14.7353   50.3349 N   0  3  0  0  0  0
   11.8054   10.4935   55.0882 H   0  0  0  0  0  0
    9.7997   12.4719   54.3591 H   0  0  0  0  0  0
   10.3028   11.4743   52.0133 H   0  0  0  0  0  0
   11.4586   10.4366   52.7953 H   0  0  0  0  0  0
   12.6037   12.5565   53.6637 H   0  0  0  0  0  0
   11.4786   13.4933   52.7220 H   0  0  0  0  0  0
   12.2862   12.1922   50.6433 H   0  0  0  0  0  0
   13.5185   11.4726   51.6645 H   0  0  0  0  0  0
   13.5057   14.3588   51.8330 H   0  0  0  0  0  0
   15.9408   12.5625   49.1143 H   0  0  0  0  0  0
   14.7185   11.6076   49.9025 H   0  0  0  0  0  0
   16.2297   14.8103   49.7100 H   0  0  0  0  0  0
   15.1624   15.5351   50.8881 H   0  0  0  0  0  0
    9.0231    9.2332   54.1136 N   0  0  0  0  0  0
    7.9263    8.2851   53.8855 C   0  0  2  0  0  0
    7.1798    7.9280   55.1908 C   0  0  0  0  0  0
    6.2582    7.1136   55.1479 O   0  0  0  0  0  0
    8.4737    7.0733   53.0726 C   0  0  0  0  0  0
    8.7901    5.7446   53.8003 C   0  0  0  0  0  0
    8.8130    4.5374   52.8588 C   0  0  0  0  0  0
    9.3693    4.6733   51.7470 O   0  0  0  0  0  0
    8.2672    3.4906   53.2715 O   0  5  0  0  0  0
    9.9257    8.8482   54.3581 H   0  0  0  0  0  0
    7.1799    8.7599   53.2457 H   0  0  0  0  0  0
    9.3454    7.3762   52.4898 H   0  0  0  0  0  0
    7.7133    6.8529   52.3213 H   0  0  0  0  0  0
    8.0446    5.5087   54.5541 H   0  0  0  0  0  0
    9.7469    5.8188   54.3178 H   0  0  0  0  0  0
    7.5165    8.5710   56.3254 N   0  0  0  0  0  0
    6.8890    8.3673   57.6350 C   0  0  0  0  0  0
    6.7573    9.3227   58.1437 H   0  0  0  0  0  0
    7.6800    7.3614   58.5099 C   0  0  0  0  0  0
    7.8996    5.9802   57.9475 C   0  0  0  0  0  0
    9.0289    5.6319   57.2296 N   0  0  0  0  0  0
    7.1304    4.8394   58.0018 C   0  0  0  0  0  0
    8.9097    4.3424   56.9036 C   0  0  0  0  0  0
    7.7801    3.7967   57.3375 N   0  0  0  0  0  0
    8.2822    9.2279   56.2817 H   0  0  0  0  0  0
    5.9057    7.9216   57.4753 H   0  0  0  0  0  0
    7.1613    7.2141   59.4580 H   0  0  0  0  0  0
    8.6523    7.7768   58.7677 H   0  0  0  0  0  0
    9.7989    6.2479   57.0016 H   0  0  0  0  0  0
    6.1697    4.6872   58.4707 H   0  0  0  0  0  0
    9.6509    3.8018   56.3335 H   0  0  0  0  0  0
   34.5091   12.3423   60.0088 H   0  0  0  0  0  0
   33.8407   11.7924   59.3467 C   0  0  0  0  0  0
   33.8431   12.2687   58.3651 H   0  0  0  0  0  0
   32.4083   11.6959   59.9182 C   0  0  0  0  0  0
   31.4681   10.8356   59.1102 C   0  0  0  0  0  0
   30.8605   11.2836   57.9349 N   0  0  0  0  0  0
   31.0692    9.5377   59.3450 C   0  0  0  0  0  0
   30.1541   10.2516   57.4958 C   0  0  0  0  0  0
   30.2450    9.1900   58.2917 N   0  0  0  0  0  0
   34.2228   10.7766   59.2243 H   0  0  0  0  0  0
   31.9647   12.6865   60.0321 H   0  0  0  0  0  0
   32.4503   11.2687   60.9208 H   0  0  0  0  0  0
   31.3056    8.8557   60.1451 H   0  0  0  0  0  0
   29.5702   10.2613   56.5870 H   0  0  0  0  0  0
   31.1417   13.6543   55.8740 H   0  0  0  0  0  0
   30.2706   13.5971   55.2226 C   0  0  0  0  0  0
   29.0294   13.2469   56.0609 C   0  0  0  0  0  0
   28.2373   12.3902   55.6747 O   0  0  0  0  0  0
   30.5639   12.6910   53.9943 C   0  0  0  0  0  0
   29.4819   12.6825   52.9041 C   0  0  0  0  0  0
   28.7065   13.6606   52.8268 O   0  0  0  0  0  0
   29.4261   11.6782   52.1621 O   0  5  0  0  0  0
   30.0307   14.5891   54.8344 H   0  0  0  0  0  0
   30.7350   11.6669   54.3301 H   0  0  0  0  0  0
   31.4897   13.0092   53.5199 H   0  0  0  0  0  0
   28.8633   13.8710   57.2386 N   0  0  0  0  0  0
   27.7149   13.6254   58.1099 C   0  0  0  0  0  0
   26.8687   14.2082   57.7750 H   0  0  0  0  0  0
   27.9601   13.9478   59.1215 H   0  0  0  0  0  0
   29.5405   14.5619   57.5259 H   0  0  0  0  0  0
   27.5418   12.5482   58.1581 H   0  0  0  0  0  0
   25.1070   13.5905   57.0827 H   0  0  0  0  0  0
   24.1843   13.8870   56.6087 C   0  0  0  0  0  0
   23.4987   13.0839   56.8400 H   0  0  0  0  0  0
   24.3751   14.0677   55.0953 C   0  0  0  0  0  0
   23.8354   14.8329   57.0213 H   0  0  0  0  0  0
   23.4335   14.3156   54.6045 H   0  0  0  0  0  0
   25.0759   14.8746   54.8815 H   0  0  0  0  0  0
   24.7710   13.1613   54.6358 H   0  0  0  0  0  0
   21.4827   12.9270   56.8704 H   0  0  0  0  0  0
   20.7627   12.1700   57.1455 C   0  0  0  0  0  0
   20.7259   10.9364   56.2159 C   0  0  0  0  0  0
   20.2496    9.8798   56.6291 O   0  0  0  0  0  0
   19.7794   12.6400   57.1267 H   0  0  0  0  0  0
   20.9055   11.8103   58.1665 H   0  0  0  0  0  0
   21.2729   11.0497   54.9911 N   0  0  0  0  0  0
   21.4615    9.9557   54.0287 C   0  0  2  0  0  0
   22.5657    8.9631   54.4555 C   0  0  0  0  0  0
   22.5727    7.8291   53.9799 O   0  0  0  0  0  0
   21.8135   10.5544   52.6443 C   0  0  0  0  0  0
   23.0991   11.4042   52.6117 C   0  0  0  0  0  0
   23.4021   12.0454   51.2501 C   0  0  0  0  0  0
   24.0937   13.3248   51.4542 N   0  0  0  0  0  0
   25.4041   13.4838   51.7003 C   0  0  0  0  0  0
   26.2660   12.4605   51.6431 N   0  0  0  0  0  0
   25.8588   14.6938   52.0398 N   0  3  0  0  0  0
   21.6367   11.9548   54.7310 H   0  0  0  0  0  0
   20.5216    9.4094   53.9400 H   0  0  0  0  0  0
   20.9753   11.1668   52.3117 H   0  0  0  0  0  0
   21.8969    9.7505   51.9111 H   0  0  0  0  0  0
   23.9573   10.7984   52.8966 H   0  0  0  0  0  0
   23.0210   12.1841   53.3677 H   0  0  0  0  0  0
   22.4720   12.2669   50.7258 H   0  0  0  0  0  0
   23.9760   11.3772   50.6077 H   0  0  0  0  0  0
   23.4965   14.1371   51.5166 H   0  0  0  0  0  0
   27.2452   12.6121   51.8720 H   0  0  0  0  0  0
   25.9479   11.5325   51.4069 H   0  0  0  0  0  0
   26.8386   14.7992   52.2778 H   0  0  0  0  0  0
   25.2379   15.4865   52.1135 H   0  0  0  0  0  0
   23.4749    9.3861   55.3509 N   0  0  0  0  0  0
   24.6032    8.6154   55.8820 C   0  0  2  0  0  0
   24.3894    8.2523   57.3621 C   0  0  0  0  0  0
   25.3479    7.9697   58.0802 O   0  0  0  0  0  0
   25.9199    9.4008   55.6708 C   0  0  0  0  0  0
   26.3196    9.5500   54.1983 C   0  0  0  0  0  0
   25.8229    8.8530   53.3176 O   0  0  0  0  0  0
   27.2393   10.4665   53.9200 N   0  0  0  0  0  0
   23.3694   10.3242   55.7124 H   0  0  0  0  0  0
   24.6861    7.6579   55.3636 H   0  0  0  0  0  0
   26.7515    8.8993   56.1651 H   0  0  0  0  0  0
   25.8445   10.3899   56.1259 H   0  0  0  0  0  0
   27.5921   10.5669   52.9778 H   0  0  0  0  0  0
   27.6207   11.0502   54.6564 H   0  0  0  0  0  0
   23.1219    8.2076   57.7981 N   0  0  0  0  0  0
   22.6643    7.5885   59.0350 C   0  0  0  0  0  0
   21.6630    6.5118   58.6034 C   0  0  0  0  0  0
   20.6817    6.8341   57.9408 O   0  0  0  0  0  0
   22.1968    8.3186   59.6956 H   0  0  0  0  0  0
   22.3983    8.4797   57.1471 H   0  0  0  0  0  0
   23.4983    7.1104   59.5454 H   0  0  0  0  0  0
   21.9164    5.2469   58.9655 N   0  0  0  0  0  0
   21.0584    4.0991   58.6777 C   0  0  2  0  0  0
   20.2487    3.7175   59.9208 C   0  0  0  0  0  0
   20.6536    3.9928   61.0485 O   0  0  0  0  0  0
   21.9231    2.8874   58.2880 C   0  0  0  0  0  0
   22.7543    3.0614   57.0061 C   0  0  0  0  0  0
   23.6564    1.8428   56.7887 C   0  0  0  0  0  0
   21.9050    3.3173   55.7523 C   0  0  0  0  0  0
   22.7306    5.0752   59.5424 H   0  0  0  0  0  0
   20.3636    4.3265   57.8739 H   0  0  0  0  0  0
   21.2755    2.0245   58.1502 H   0  0  0  0  0  0
   22.5936    2.6430   59.1135 H   0  0  0  0  0  0
   23.3888    3.9283   57.1568 H   0  0  0  0  0  0
   24.2771    1.9522   55.9012 H   0  0  0  0  0  0
   24.3247    1.6903   57.6329 H   0  0  0  0  0  0
   23.0603    0.9403   56.6649 H   0  0  0  0  0  0
   22.5236    3.3228   54.8541 H   0  0  0  0  0  0
   21.1388    2.5520   55.6236 H   0  0  0  0  0  0
   21.4175    4.2879   55.8003 H   0  0  0  0  0  0
   19.0996    3.0719   59.6852 N   0  0  0  0  0  0
   18.0818    2.7273   60.6698 C   0  0  2  0  0  0
   18.0403    1.1909   60.7912 C   0  0  0  0  0  0
   17.6352    0.5093   59.8481 O   0  0  0  0  0  0
   16.7301    3.3242   60.1691 C   0  0  0  0  0  0
   15.5729    3.0964   61.1558 C   0  0  0  0  0  0
   16.8149    4.8271   59.8348 C   0  0  0  0  0  0
   18.8556    2.8948   58.7186 H   0  0  0  0  0  0
   18.3228    3.1522   61.6446 H   0  0  0  0  0  0
   16.4727    2.8358   59.2300 H   0  0  0  0  0  0
   14.6291    3.4551   60.7436 H   0  0  0  0  0  0
   15.4377    2.0417   61.3924 H   0  0  0  0  0  0
   15.7481    3.6351   62.0869 H   0  0  0  0  0  0
   15.8382    5.2270   59.5602 H   0  0  0  0  0  0
   17.1828    5.3998   60.6835 H   0  0  0  0  0  0
   17.4804    5.0232   58.9944 H   0  0  0  0  0  0
   18.4485    0.6468   61.9549 N   0  0  0  0  0  0
   18.3526   -0.7853   62.2756 C   0  0  0  0  0  0
   16.9310   -1.1112   62.7551 C   0  0  0  0  0  0
   16.3523   -2.1191   62.3542 O   0  0  0  0  0  0
   19.0745   -1.0553   63.0456 H   0  0  0  0  0  0
   18.7587    1.2669   62.6916 H   0  0  0  0  0  0
   18.5912   -1.3695   61.3876 H   0  0  0  0  0  0
   16.3841   -0.2262   63.5969 N   0  0  0  0  0  0
   15.0041   -0.1644   64.0592 C   0  0  0  0  0  0
   14.6183    1.3251   64.1157 C   0  0  0  0  0  0
   15.5176    2.1630   64.2154 O   0  0  0  0  0  0
   14.8705   -0.6535   65.0238 H   0  0  0  0  0  0
   16.9523    0.5717   63.8496 H   0  0  0  0  0  0
   14.3879   -0.6502   63.3039 H   0  0  0  0  0  0
   13.3167    1.6902   64.1056 N   0  0  0  0  0  0
   12.8368    3.0627   64.3544 C   0  0  0  0  0  0
   13.2911    3.5150   65.2381 H   0  0  0  0  0  0
   11.3149    2.9257   64.4929 C   0  0  0  0  0  0
   10.9638    1.6880   63.6889 C   0  0  0  0  0  0
   12.2012    0.7997   63.7805 C   0  0  0  0  0  0
   13.0689    3.6521   63.4652 H   0  0  0  0  0  0
   10.7804    3.8131   64.1536 H   0  0  0  0  0  0
   11.0331    2.7455   65.5309 H   0  0  0  0  0  0
   10.8042    1.9596   62.6462 H   0  0  0  0  0  0
   10.0586    1.1932   64.0420 H   0  0  0  0  0  0
   12.0660    0.0645   64.5724 H   0  0  0  0  0  0
   12.3588    0.2693   62.8413 H   0  0  0  0  0  0
   22.8280    4.3460   63.3877 H   0  0  0  0  0  0
   23.9174    4.3371   63.3165 C   0  0  0  0  0  0
   24.1633    4.9310   62.4433 H   0  0  0  0  0  0
   24.4425    2.8939   63.2109 C   0  0  0  0  0  0
   23.9108    1.8932   64.2407 C   0  0  0  0  0  0
   24.6564    0.5571   64.1468 C   0  0  0  0  0  0
   24.0231   -0.5454   64.9995 C   0  0  0  0  0  0
   24.8977   -1.7260   65.0562 N   0  3  0  0  0  0
   24.3073    4.7920   64.2268 H   0  0  0  0  0  0
   25.5296    2.9213   63.2775 H   0  0  0  0  0  0
   24.2192    2.5085   62.2187 H   0  0  0  0  0  0
   22.8433    1.7391   64.1002 H   0  0  0  0  0  0
   24.0144    2.3056   65.2380 H   0  0  0  0  0  0
   25.6882    0.7152   64.4612 H   0  0  0  0  0  0
   24.6973    0.2261   63.1076 H   0  0  0  0  0  0
   23.0517   -0.8309   64.5945 H   0  0  0  0  0  0
   23.8527   -0.2000   66.0170 H   0  0  0  0  0  0
   25.8206   -1.4517   65.3616 H   0  0  0  0  0  0
   24.5163   -2.4009   65.7024 H   0  0  0  0  0  0
   24.9543   -2.1491   64.1376 H   0  0  0  0  0  0
   25.8597    6.0334   62.0864 H   0  0  0  0  0  0
   26.3282    6.5350   61.2521 C   0  0  0  0  0  0
   27.1067    5.5596   60.3424 C   0  0  0  0  0  0
   27.6720    4.5791   60.8251 O   0  0  0  0  0  0
   27.0377    7.2485   61.6719 H   0  0  0  0  0  0
   25.6137    7.1098   60.6613 H   0  0  0  0  0  0
   27.1509    5.8549   59.0333 N   0  0  0  0  0  0
   27.8081    5.0678   57.9847 C   0  0  2  0  0  0
   28.5227    5.9793   56.9647 C   0  0  0  0  0  0
   28.5405    7.1969   57.1372 O   0  0  0  0  0  0
   26.7916    4.0692   57.3748 C   0  0  2  0  0  0
   27.4710    3.0422   56.6770 O   0  0  0  0  0  0
   25.7890    4.7432   56.4212 C   0  0  0  0  0  0
   26.6730    6.6919   58.7224 H   0  0  0  0  0  0
   28.6021    4.4860   58.4540 H   0  0  0  0  0  0
   26.2337    3.5835   58.1737 H   0  0  0  0  0  0
   26.8366    2.4128   56.3672 H   0  0  0  0  0  0
   25.1992    4.0136   55.8730 H   0  0  0  0  0  0
   25.1093    5.3944   56.9691 H   0  0  0  0  0  0
   26.2738    5.3562   55.6675 H   0  0  0  0  0  0
   29.0908    5.3812   55.8980 N   0  0  0  0  0  0
   29.7169    6.0204   54.7293 C   0  0  2  0  0  0
   30.9579    6.8240   55.1273 C   0  0  0  0  0  0
   30.9293    8.0523   55.2072 O   0  0  0  0  0  0
   28.7214    6.8419   53.8690 C   0  0  0  0  0  0
   27.8816    5.9740   52.9313 C   0  0  0  0  0  0
   28.4557    5.5299   51.9111 O   0  0  0  0  0  0
   26.6942    5.7483   53.2467 O   0  5  0  0  0  0
   28.9962    4.3754   55.8525 H   0  0  0  0  0  0
   30.0908    5.2022   54.1099 H   0  0  0  0  0  0
   29.2530    7.5549   53.2368 H   0  0  0  0  0  0
   28.0675    7.4342   54.5047 H   0  0  0  0  0  0
   32.0482    6.0948   55.3872 N   0  0  0  0  0  0
   33.3316    6.6231   55.8334 C   0  0  2  0  0  0
   34.3264    6.7674   54.6647 C   0  0  0  0  0  0
   35.5365    6.7927   54.8886 O   0  0  0  0  0  0
   33.8867    5.6462   56.8839 C   0  0  0  0  0  0
   33.1002    5.6224   58.1758 C   0  0  0  0  0  0
   32.0615    4.6895   58.3763 C   0  0  0  0  0  0
   33.4046    6.5598   59.1808 C   0  0  0  0  0  0
   31.3247    4.7042   59.5769 C   0  0  0  0  0  0
   32.6757    6.5677   60.3806 C   0  0  0  0  0  0
   31.6231    5.6569   60.5706 C   0  0  0  0  0  0
   31.9771    5.0917   55.2902 H   0  0  0  0  0  0
   33.2124    7.6083   56.2888 H   0  0  0  0  0  0
   34.8924    5.9466   57.1672 H   0  0  0  0  0  0
   33.9560    4.6364   56.4758 H   0  0  0  0  0  0
   31.8152    3.9750   57.6047 H   0  0  0  0  0  0
   34.1887    7.2840   59.0287 H   0  0  0  0  0  0
   30.5237    3.9960   59.7310 H   0  0  0  0  0  0
   32.9111    7.2894   61.1447 H   0  0  0  0  0  0
   31.0442    5.7075   61.4784 H   0  0  0  0  0  0
   33.8328    6.9046   53.4206 N   0  0  0  0  0  0
   34.6422    7.0654   52.2113 C   0  0  0  0  0  0
   35.4532    8.3715   52.1451 C   0  0  0  0  0  0
   36.4354    8.4351   51.4069 O   0  0  0  0  0  0
   32.8295    6.8814   53.3042 H   0  0  0  0  0  0
   33.9797    7.0259   51.3466 H   0  0  0  0  0  0
   35.3217    6.2162   52.1208 H   0  0  0  0  0  0
   35.0616    9.3937   52.9259 N   0  0  0  0  0  0
   35.7398   10.6846   53.0589 C   0  0  0  0  0  0
   36.2147   10.7444   54.0398 H   0  0  0  0  0  0
   34.6979   11.8185   52.8580 C   0  0  0  0  0  0
   34.5021   12.2699   51.3905 C   0  0  0  0  0  0
   33.9545   11.1684   50.4684 C   0  0  0  0  0  0
   33.5937   13.5060   51.3124 C   0  0  0  0  0  0
   34.2359    9.2556   53.4911 H   0  0  0  0  0  0
   36.5240   10.7905   52.3075 H   0  0  0  0  0  0
   35.0049   12.7045   53.4146 H   0  0  0  0  0  0
   33.7387   11.5324   53.2938 H   0  0  0  0  0  0
   35.4769   12.5697   51.0039 H   0  0  0  0  0  0
   33.7220   11.5669   49.4803 H   0  0  0  0  0  0
   34.6795   10.3708   50.3187 H   0  0  0  0  0  0
   33.0411   10.7297   50.8715 H   0  0  0  0  0  0
   33.5868   13.9182   50.3032 H   0  0  0  0  0  0
   32.5637   13.2622   51.5676 H   0  0  0  0  0  0
   33.9295   14.2933   51.9878 H   0  0  0  0  0  0
   34.9101   16.7259   45.9678 H   0  0  0  0  0  0
   34.1836   15.9159   45.9181 C   0  0  0  0  0  0
   33.2770   15.8489   47.1601 C   0  0  0  0  0  0
   32.5544   14.8681   47.3354 O   0  0  0  0  0  0
   34.6960   14.9663   45.7638 H   0  0  0  0  0  0
   33.4835   16.0942   45.0998 H   0  0  0  0  0  0
   33.3275   16.8742   48.0260 N   0  0  0  0  0  0
   32.6074   16.9501   49.2962 C   0  0  0  0  0  0
   31.3178   17.7745   49.0648 C   0  0  0  0  0  0
   31.3817   18.7972   48.3782 O   0  0  0  0  0  0
   33.2230   17.4501   50.0420 H   0  0  0  0  0  0
   33.9086   17.6648   47.7902 H   0  0  0  0  0  0
   32.3967   15.9398   49.6437 H   0  0  0  0  0  0
   30.1538   17.3666   49.6234 N   0  0  0  0  0  0
   28.8786   18.0832   49.4622 C   0  0  0  0  0  0
   28.8612   18.9859   50.0753 H   0  0  0  0  0  0
   27.8062   17.0872   49.9193 C   0  0  0  0  0  0
   28.5244   16.1393   50.8627 C   0  0  0  0  0  0
   29.9775   16.1436   50.4074 C   0  0  0  0  0  0
   28.7176   18.3118   48.4063 H   0  0  0  0  0  0
   27.4453   16.5276   49.0554 H   0  0  0  0  0  0
   26.9377   17.5562   50.3807 H   0  0  0  0  0  0
   28.1082   15.1356   50.8207 H   0  0  0  0  0  0
   28.4521   16.5054   51.8882 H   0  0  0  0  0  0
   30.6446   16.0884   51.2666 H   0  0  0  0  0  0
   30.1688   15.2771   49.7725 H   0  0  0  0  0  0
   29.7887    8.2989   58.1367 H   0  0  0  0  0  0
  1  2  1  0  0  0
  2  3  1  0  0  0
  2  4  1  0  0  0
  2  9  1  0  0  0
  4  5  1  0  0  0
  4 10  1  0  0  0
  4 11  1  0  0  0
  5  6  1  0  0  0
  5 12  1  0  0  0
  5 13  1  0  0  0
  6  7  1  0  0  0
  6 14  1  0  0  0
  6 15  1  0  0  0
  7  8  1  0  0  0
  7 16  1  0  0  0
  7 17  1  0  0  0
  8 18  1  0  0  0
  8 19  1  0  0  0
  8 20  1  0  0  0
 21 22  1  0  0  0
 22 23  1  0  0  0
 22 25  1  0  0  0
 22 28  1  0  0  0
 23 24  2  0  0  0
 23 36  1  0  0  0
 25 26  1  0  0  0
 25 27  1  0  0  0
 25 29  1  0  0  0
 26 30  1  0  0  0
 26 31  1  0  0  0
 26 32  1  0  0  0
 27 33  1  0  0  0
 27 34  1  0  0  0
 27 35  1  0  0  0
 36 37  1  0  0  0
 36 44  1  0  0  0
 37 38  1  0  0  0
 37 40  1  0  0  0
 37 45  1  0  0  0
 38 39  2  0  0  0
 38 55  1  0  0  0
 40 41  1  0  0  0
 40 46  1  0  0  0
 40 47  1  0  0  0
 41 42  1  0  0  0
 41 43  1  0  0  0
 41 48  1  0  0  0
 42 49  1  0  0  0
 42 50  1  0  0  0
 42 51  1  0  0  0
 43 52  1  0  0  0
 43 53  1  0  0  0
 43 54  1  0  0  0
 55 56  1  0  0  0
 55 59  1  0  0  0
 56 57  1  0  0  0
 56 60  1  0  0  0
 56 61  1  0  0  0
 57 58  2  0  0  0
 57 62  1  0  0  0
 62 63  1  0  0  0
 62 68  1  0  0  0
 63 64  1  0  0  0
 63 66  1  0  0  0
 63 69  1  0  0  0
 64 65  2  0  0  0
 64 73  1  0  0  0
 66 67  1  0  0  0
 66 70  1  0  0  0
 66 71  1  0  0  0
 67 72  1  0  0  0
 73 74  1  0  0  0
 73 77  1  0  0  0
 74 75  1  0  0  0
 74 78  1  0  0  0
 74 79  1  0  0  0
 75 76  2  0  0  0
 75 80  1  0  0  0
 80 81  1  0  0  0
 80 85  1  0  0  0
 81 82  1  0  0  0
 81 84  1  0  0  0
 81 86  1  0  0  0
 82 83  2  0  0  0
 82 90  1  0  0  0
 84 87  1  0  0  0
 84 88  1  0  0  0
 84 89  1  0  0  0
 90 91  1  0  0  0
 90101  1  0  0  0
 91 92  1  0  0  0
 91 94  1  0  0  0
 91102  1  0  0  0
 92 93  2  0  0  0
 92110  1  0  0  0
 94 95  1  0  0  0
 94103  1  0  0  0
 94104  1  0  0  0
 95 96  2  0  0  0
 95 97  1  0  0  0
 96 98  1  0  0  0
 96105  1  0  0  0
 97 99  2  0  0  0
 97106  1  0  0  0
 98100  2  0  0  0
 98107  1  0  0  0
 99100  1  0  0  0
 99108  1  0  0  0
100109  1  0  0  0
110111  1  0  0  0
110114  1  0  0  0
111112  1  0  0  0
111115  1  0  0  0
111116  1  0  0  0
112113  2  0  0  0
112117  1  0  0  0
117118  1  0  0  0
117122  1  0  0  0
118119  1  0  0  0
118121  1  0  0  0
118123  1  0  0  0
119120  2  0  0  0
119124  1  0  0  0
124125  1  0  0  0
124131  1  0  0  0
125126  1  0  0  0
125128  1  0  0  0
125132  1  0  0  0
126127  2  0  0  0
126140  1  0  0  0
128129  1  0  0  0
128130  1  0  0  0
128133  1  0  0  0
129134  1  0  0  0
129135  1  0  0  0
129136  1  0  0  0
130137  1  0  0  0
130138  1  0  0  0
130139  1  0  0  0
140141  1  0  0  0
140145  1  0  0  0
141142  1  0  0  0
141144  1  0  0  0
141146  1  0  0  0
142143  2  0  0  0
142147  1  0  0  0
147148  1  0  0  0
147155  1  0  0  0
148149  1  0  0  0
148150  1  0  0  0
148156  1  0  0  0
150151  1  0  0  0
150157  1  0  0  0
150158  1  0  0  0
151152  1  0  0  0
151159  1  0  0  0
151160  1  0  0  0
152153  1  0  0  0
152161  1  0  0  0
152162  1  0  0  0
153154  1  0  0  0
153163  1  0  0  0
153164  1  0  0  0
154165  1  0  0  0
154166  1  0  0  0
154167  1  0  0  0
168169  1  0  0  0
169170  1  0  0  0
169172  1  0  0  0
169175  1  0  0  0
170171  2  0  0  0
170183  1  0  0  0
172173  1  0  0  0
172174  1  0  0  0
172176  1  0  0  0
173177  1  0  0  0
173178  1  0  0  0
173179  1  0  0  0
174180  1  0  0  0
174181  1  0  0  0
174182  1  0  0  0
183184  1  0  0  0
183188  1  0  0  0
184185  1  0  0  0
184187  1  0  0  0
184189  1  0  0  0
185186  2  0  0  0
185193  1  0  0  0
187190  1  0  0  0
187191  1  0  0  0
187192  1  0  0  0
193194  1  0  0  0
193201  1  0  0  0
194195  1  0  0  0
194197  1  0  0  0
194202  1  0  0  0
195196  2  0  0  0
195212  1  0  0  0
197198  1  0  0  0
197199  1  0  0  0
197203  1  0  0  0
198200  1  0  0  0
198204  1  0  0  0
198205  1  0  0  0
199206  1  0  0  0
199207  1  0  0  0
199208  1  0  0  0
200209  1  0  0  0
200210  1  0  0  0
200211  1  0  0  0
212213  1  0  0  0
212221  1  0  0  0
213214  1  0  0  0
213216  1  0  0  0
213222  1  0  0  0
214215  2  0  0  0
214234  1  0  0  0
216217  1  0  0  0
216223  1  0  0  0
216224  1  0  0  0
217218  1  0  0  0
217225  1  0  0  0
217226  1  0  0  0
218219  1  0  0  0
218227  1  0  0  0
218228  1  0  0  0
219220  1  0  0  0
219229  1  0  0  0
219230  1  0  0  0
220231  1  0  0  0
220232  1  0  0  0
220233  1  0  0  0
234235  1  0  0  0
234238  1  0  0  0
235236  1  0  0  0
235237  1  0  0  0
235239  1  0  0  0
240241  1  0  0  0
241242  1  0  0  0
241243  1  0  0  0
241247  1  0  0  0
243244  1  0  0  0
243245  1  0  0  0
243248  1  0  0  0
244246  1  0  0  0
244249  1  0  0  0
244250  1  0  0  0
245251  1  0  0  0
245252  1  0  0  0
245253  1  0  0  0
246254  1  0  0  0
246255  1  0  0  0
246256  1  0  0  0
257258  1  0  0  0
258259  1  0  0  0
258261  1  0  0  0
258266  1  0  0  0
259260  2  0  0  0
259271  1  0  0  0
261262  1  0  0  0
261267  1  0  0  0
261268  1  0  0  0
262263  1  0  0  0
262269  1  0  0  0
262270  1  0  0  0
263264  2  0  0  0
263265  1  0  0  0
271272  1  0  0  0
271275  1  0  0  0
272273  1  0  0  0
272274  1  0  0  0
272276  1  0  0  0
274277  1  0  0  0
274278  1  0  0  0
274279  1  0  0  0
280281  1  0  0  0
281282  1  0  0  0
281283  1  0  0  0
281286  1  0  0  0
283284  1  0  0  0
283285  1  0  0  0
283287  1  0  0  0
284288  1  0  0  0
284289  1  0  0  0
284290  1  0  0  0
285291  1  0  0  0
285292  1  0  0  0
285293  1  0  0  0
294295  1  0  0  0
295296  1  0  0  0
295297  1  0  0  0
295301  1  0  0  0
297298  1  0  0  0
297302  1  0  0  0
297303  1  0  0  0
298299  1  0  0  0
298304  1  0  0  0
298305  1  0  0  0
299300  1  0  0  0
300306  1  0  0  0
300307  1  0  0  0
300308  1  0  0  0
309310  1  0  0  0
310311  1  0  0  0
310313  1  0  0  0
310314  1  0  0  0
311312  2  0  0  0
311315  1  0  0  0
315316  1  0  0  0
315321  1  0  0  0
316317  1  0  0  0
316319  1  0  0  0
316322  1  0  0  0
317318  2  0  0  0
317326  1  0  0  0
319320  1  0  0  0
319323  1  0  0  0
319324  1  0  0  0
320325  1  0  0  0
326327  1  0  0  0
326331  1  0  0  0
327328  1  0  0  0
327330  1  0  0  0
327332  1  0  0  0
328329  2  0  0  0
328333  1  0  0  0
333334  1  0  0  0
333341  1  0  0  0
334335  1  0  0  0
334337  1  0  0  0
334342  1  0  0  0
335336  2  0  0  0
335352  1  0  0  0
337338  1  0  0  0
337343  1  0  0  0
337344  1  0  0  0
338339  1  0  0  0
338340  1  0  0  0
338345  1  0  0  0
339346  1  0  0  0
339347  1  0  0  0
339348  1  0  0  0
340349  1  0  0  0
340350  1  0  0  0
340351  1  0  0  0
352353  1  0  0  0
352357  1  0  0  0
353354  1  0  0  0
353356  1  0  0  0
353358  1  0  0  0
354355  2  0  0  0
354359  1  0  0  0
359360  1  0  0  0
359363  1  0  0  0
360361  1  0  0  0
360364  1  0  0  0
360365  1  0  0  0
361362  2  0  0  0
361366  1  0  0  0
366367  1  0  0  0
366373  1  0  0  0
367368  1  0  0  0
367369  1  0  0  0
367374  1  0  0  0
369370  1  0  0  0
369371  1  0  0  0
369375  1  0  0  0
370372  1  0  0  0
370376  1  0  0  0
370377  1  0  0  0
371378  1  0  0  0
371379  1  0  0  0
371380  1  0  0  0
372381  1  0  0  0
372382  1  0  0  0
372383  1  0  0  0
384385  1  0  0  0
385386  1  0  0  0
385388  1  0  0  0
385393  1  0  0  0
386387  2  0  0  0
386400  1  0  0  0
388389  1  0  0  0
388394  1  0  0  0
388395  1  0  0  0
389390  1  0  0  0
389396  1  0  0  0
389397  1  0  0  0
390391  2  0  0  0
390392  1  0  0  0
392398  1  0  0  0
392399  1  0  0  0
400401  1  0  0  0
400408  1  0  0  0
401402  1  0  0  0
401404  1  0  0  0
401409  1  0  0  0
402403  2  0  0  0
402419  1  0  0  0
404405  1  0  0  0
404410  1  0  0  0
404411  1  0  0  0
405406  1  0  0  0
405407  1  0  0  0
405412  1  0  0  0
406413  1  0  0  0
406414  1  0  0  0
406415  1  0  0  0
407416  1  0  0  0
407417  1  0  0  0
407418  1  0  0  0
419420  1  0  0  0
419427  1  0  0  0
420421  1  0  0  0
420423  1  0  0  0
420428  1  0  0  0
421422  2  0  0  0
421438  1  0  0  0
423424  1  0  0  0
423425  1  0  0  0
423429  1  0  0  0
424426  1  0  0  0
424430  1  0  0  0
424431  1  0  0  0
425432  1  0  0  0
425433  1  0  0  0
425434  1  0  0  0
426435  1  0  0  0
426436  1  0  0  0
426437  1  0  0  0
438439  1  0  0  0
438445  1  0  0  0
439440  1  0  0  0
439442  1  0  0  0
439446  1  0  0  0
440441  2  0  0  0
440452  1  0  0  0
442443  1  0  0  0
442444  1  0  0  0
442447  1  0  0  0
443448  1  0  0  0
444449  1  0  0  0
444450  1  0  0  0
444451  1  0  0  0
452453  1  0  0  0
452461  1  0  0  0
453454  1  0  0  0
453456  1  0  0  0
453462  1  0  0  0
454455  2  0  0  0
454469  1  0  0  0
456457  1  0  0  0
456463  1  0  0  0
456464  1  0  0  0
457458  1  0  0  0
457465  1  0  0  0
457466  1  0  0  0
458459  2  0  0  0
458460  1  0  0  0
460467  1  0  0  0
460468  1  0  0  0
469470  1  0  0  0
469477  1  0  0  0
470471  1  0  0  0
470473  1  0  0  0
470478  1  0  0  0
471472  2  0  0  0
471488  1  0  0  0
473474  1  0  0  0
473479  1  0  0  0
473480  1  0  0  0
474475  1  0  0  0
474476  1  0  0  0
474481  1  0  0  0
475482  1  0  0  0
475483  1  0  0  0
475484  1  0  0  0
476485  1  0  0  0
476486  1  0  0  0
476487  1  0  0  0
488489  1  0  0  0
488496  1  0  0  0
489490  1  0  0  0
489492  1  0  0  0
489497  1  0  0  0
490491  2  0  0  0
490505  1  0  0  0
492493  1  0  0  0
492498  1  0  0  0
492499  1  0  0  0
493494  1  0  0  0
493500  1  0  0  0
493501  1  0  0  0
494495  1  0  0  0
495502  1  0  0  0
495503  1  0  0  0
495504  1  0  0  0
505506  1  0  0  0
505511  1  0  0  0
506507  1  0  0  0
506509  1  0  0  0
506512  1  0  0  0
507508  2  0  0  0
507519  1  0  0  0
509510  1  0  0  0
509513  1  0  0  0
509514  1  0  0  0
510511  1  0  0  0
510515  1  0  0  0
510516  1  0  0  0
511517  1  0  0  0
511518  1  0  0  0
519520  1  0  0  0
519530  1  0  0  0
520521  1  0  0  0
520523  1  0  0  0
520531  1  0  0  0
521522  2  0  0  0
521539  1  0  0  0
523524  1  0  0  0
523532  1  0  0  0
523533  1  0  0  0
524525  2  0  0  0
524526  1  0  0  0
525527  1  0  0  0
525534  1  0  0  0
526528  2  0  0  0
526535  1  0  0  0
527529  2  0  0  0
527536  1  0  0  0
528529  1  0  0  0
528537  1  0  0  0
529538  1  0  0  0
539540  1  0  0  0
539543  1  0  0  0
540541  1  0  0  0
540544  1  0  0  0
540545  1  0  0  0
541542  2  0  0  0
541546  1  0  0  0
546547  1  0  0  0
546552  1  0  0  0
547548  1  0  0  0
547550  1  0  0  0
547553  1  0  0  0
548549  2  0  0  0
548557  1  0  0  0
550551  1  0  0  0
550554  1  0  0  0
550555  1  0  0  0
551556  1  0  0  0
557558  1  0  0  0
557562  1  0  0  0
558559  1  0  0  0
558561  1  0  0  0
558563  1  0  0  0
559560  2  0  0  0
559564  1  0  0  0
564565  1  0  0  0
564572  1  0  0  0
565566  1  0  0  0
565568  1  0  0  0
565573  1  0  0  0
566567  2  0  0  0
566583  1  0  0  0
568569  1  0  0  0
568574  1  0  0  0
568575  1  0  0  0
569570  1  0  0  0
569571  1  0  0  0
569576  1  0  0  0
570577  1  0  0  0
570578  1  0  0  0
570579  1  0  0  0
571580  1  0  0  0
571581  1  0  0  0
571582  1  0  0  0
583584  1  0  0  0
583591  1  0  0  0
584585  1  0  0  0
584587  1  0  0  0
584592  1  0  0  0
585586  2  0  0  0
585595  1  0  0  0
587588  1  0  0  0
587593  1  0  0  0
587594  1  0  0  0
588589  2  0  0  0
588590  1  0  0  0
595596  1  0  0  0
595607  1  0  0  0
596597  1  0  0  0
596599  1  0  0  0
596608  1  0  0  0
597598  2  0  0  0
597616  1  0  0  0
599600  1  0  0  0
599609  1  0  0  0
599610  1  0  0  0
600601  2  0  0  0
600602  1  0  0  0
601603  1  0  0  0
601611  1  0  0  0
602604  2  0  0  0
602612  1  0  0  0
603605  2  0  0  0
603613  1  0  0  0
604605  1  0  0  0
604614  1  0  0  0
605606  1  0  0  0
606615  1  0  0  0
616617  1  0  0  0
616621  1  0  0  0
617618  1  0  0  0
617620  1  0  0  0
617622  1  0  0  0
618619  2  0  0  0
618623  1  0  0  0
623624  1  0  0  0
623634  1  0  0  0
624625  1  0  0  0
624627  1  0  0  0
624635  1  0  0  0
625626  2  0  0  0
625647  1  0  0  0
627628  1  0  0  0
627636  1  0  0  0
627637  1  0  0  0
628629  1  0  0  0
628638  1  0  0  0
628639  1  0  0  0
629630  1  0  0  0
629640  1  0  0  0
629641  1  0  0  0
630631  1  0  0  0
630642  1  0  0  0
631632  1  0  0  0
631633  2  0  0  0
632643  1  0  0  0
632644  1  0  0  0
633645  1  0  0  0
633646  1  0  0  0
647648  1  0  0  0
647656  1  0  0  0
648649  1  0  0  0
648651  1  0  0  0
648657  1  0  0  0
649650  2  0  0  0
649662  1  0  0  0
651652  1  0  0  0
651658  1  0  0  0
651659  1  0  0  0
652653  1  0  0  0
652660  1  0  0  0
652661  1  0  0  0
653654  2  0  0  0
653655  1  0  0  0
662663  1  0  0  0
662671  1  0  0  0
663664  1  0  0  0
663665  1  0  0  0
663672  1  0  0  0
665666  1  0  0  0
665673  1  0  0  0
665674  1  0  0  0
666667  1  0  0  0
666668  2  0  0  0
667669  1  0  0  0
667675  1  0  0  0
668670  1  0  0  0
668676  1  0  0  0
669670  2  0  0  0
669677  1  0  0  0
678679  1  0  0  0
679680  1  0  0  0
679681  1  0  0  0
679687  1  0  0  0
681682  1  0  0  0
681688  1  0  0  0
681689  1  0  0  0
682683  1  0  0  0
682684  2  0  0  0
683685  2  0  0  0
684686  1  0  0  0
684690  1  0  0  0
685686  1  0  0  0
685691  1  0  0  0
686953  1  0  0  0
692693  1  0  0  0
693694  1  0  0  0
693696  1  0  0  0
693700  1  0  0  0
694695  2  0  0  0
694703  1  0  0  0
696697  1  0  0  0
696701  1  0  0  0
696702  1  0  0  0
697698  2  0  0  0
697699  1  0  0  0
703704  1  0  0  0
703707  1  0  0  0
704705  1  0  0  0
704706  1  0  0  0
704708  1  0  0  0
709710  1  0  0  0
710711  1  0  0  0
710712  1  0  0  0
710713  1  0  0  0
712714  1  0  0  0
712715  1  0  0  0
712716  1  0  0  0
717718  1  0  0  0
718719  1  0  0  0
718721  1  0  0  0
718722  1  0  0  0
719720  2  0  0  0
719723  1  0  0  0
723724  1  0  0  0
723734  1  0  0  0
724725  1  0  0  0
724727  1  0  0  0
724735  1  0  0  0
725726  2  0  0  0
725747  1  0  0  0
727728  1  0  0  0
727736  1  0  0  0
727737  1  0  0  0
728729  1  0  0  0
728738  1  0  0  0
728739  1  0  0  0
729730  1  0  0  0
729740  1  0  0  0
729741  1  0  0  0
730731  1  0  0  0
730742  1  0  0  0
731732  1  0  0  0
731733  2  0  0  0
732743  1  0  0  0
732744  1  0  0  0
733745  1  0  0  0
733746  1  0  0  0
747748  1  0  0  0
747755  1  0  0  0
748749  1  0  0  0
748751  1  0  0  0
748756  1  0  0  0
749750  2  0  0  0
749761  1  0  0  0
751752  1  0  0  0
751757  1  0  0  0
751758  1  0  0  0
752753  2  0  0  0
752754  1  0  0  0
754759  1  0  0  0
754760  1  0  0  0
761762  1  0  0  0
761766  1  0  0  0
762763  1  0  0  0
762765  1  0  0  0
762767  1  0  0  0
763764  2  0  0  0
763768  1  0  0  0
768769  1  0  0  0
768776  1  0  0  0
769770  1  0  0  0
769772  1  0  0  0
769777  1  0  0  0
770771  2  0  0  0
770787  1  0  0  0
772773  1  0  0  0
772778  1  0  0  0
772779  1  0  0  0
773774  1  0  0  0
773775  1  0  0  0
773780  1  0  0  0
774781  1  0  0  0
774782  1  0  0  0
774783  1  0  0  0
775784  1  0  0  0
775785  1  0  0  0
775786  1  0  0  0
787788  1  0  0  0
787794  1  0  0  0
788789  1  0  0  0
788791  1  0  0  0
788795  1  0  0  0
789790  2  0  0  0
789803  1  0  0  0
791792  1  0  0  0
791793  1  0  0  0
791796  1  0  0  0
792797  1  0  0  0
792798  1  0  0  0
792799  1  0  0  0
793800  1  0  0  0
793801  1  0  0  0
793802  1  0  0  0
803804  1  0  0  0
803808  1  0  0  0
804805  1  0  0  0
804807  1  0  0  0
804809  1  0  0  0
805806  2  0  0  0
805810  1  0  0  0
810811  1  0  0  0
810815  1  0  0  0
811812  1  0  0  0
811814  1  0  0  0
811816  1  0  0  0
812813  2  0  0  0
812817  1  0  0  0
817818  1  0  0  0
817822  1  0  0  0
818819  1  0  0  0
818820  1  0  0  0
818823  1  0  0  0
820821  1  0  0  0
820824  1  0  0  0
820825  1  0  0  0
821822  1  0  0  0
821826  1  0  0  0
821827  1  0  0  0
822828  1  0  0  0
822829  1  0  0  0
830831  1  0  0  0
831832  1  0  0  0
831833  1  0  0  0
831838  1  0  0  0
833834  1  0  0  0
833839  1  0  0  0
833840  1  0  0  0
834835  1  0  0  0
834841  1  0  0  0
834842  1  0  0  0
835836  1  0  0  0
835843  1  0  0  0
835844  1  0  0  0
836837  1  0  0  0
836845  1  0  0  0
836846  1  0  0  0
837847  1  0  0  0
837848  1  0  0  0
837849  1  0  0  0
850851  1  0  0  0
851852  1  0  0  0
851854  1  0  0  0
851855  1  0  0  0
852853  2  0  0  0
852856  1  0  0  0
856857  1  0  0  0
856863  1  0  0  0
857858  1  0  0  0
857860  1  0  0  0
857864  1  0  0  0
858859  2  0  0  0
858870  1  0  0  0
860861  1  0  0  0
860862  1  0  0  0
860865  1  0  0  0
861866  1  0  0  0
862867  1  0  0  0
862868  1  0  0  0
862869  1  0  0  0
870871  1  0  0  0
870878  1  0  0  0
871872  1  0  0  0
871874  1  0  0  0
871879  1  0  0  0
872873  2  0  0  0
872882  1  0  0  0
874875  1  0  0  0
874880  1  0  0  0
874881  1  0  0  0
875876  2  0  0  0
875877  1  0  0  0
882883  1  0  0  0
882893  1  0  0  0
883884  1  0  0  0
883886  1  0  0  0
883894  1  0  0  0
884885  2  0  0  0
884902  1  0  0  0
886887  1  0  0  0
886895  1  0  0  0
886896  1  0  0  0
887888  2  0  0  0
887889  1  0  0  0
888890  1  0  0  0
888897  1  0  0  0
889891  2  0  0  0
889898  1  0  0  0
890892  2  0  0  0
890899  1  0  0  0
891892  1  0  0  0
891900  1  0  0  0
892901  1  0  0  0
902903  1  0  0  0
902906  1  0  0  0
903904  1  0  0  0
903907  1  0  0  0
903908  1  0  0  0
904905  2  0  0  0
904909  1  0  0  0
909910  1  0  0  0
909916  1  0  0  0
910911  1  0  0  0
910912  1  0  0  0
910917  1  0  0  0
912913  1  0  0  0
912918  1  0  0  0
912919  1  0  0  0
913914  1  0  0  0
913915  1  0  0  0
913920  1  0  0  0
914921  1  0  0  0
914922  1  0  0  0
914923  1  0  0  0
915924  1  0  0  0
915925  1  0  0  0
915926  1  0  0  0
927928  1  0  0  0
928929  1  0  0  0
928931  1  0  0  0
928932  1  0  0  0
929930  2  0  0  0
929933  1  0  0  0
933934  1  0  0  0
933938  1  0  0  0
934935  1  0  0  0
934937  1  0  0  0
934939  1  0  0  0
935936  2  0  0  0
935940  1  0  0  0
940941  1  0  0  0
940945  1  0  0  0
941942  1  0  0  0
941943  1  0  0  0
941946  1  0  0  0
943944  1  0  0  0
943947  1  0  0  0
943948  1  0  0  0
944945  1  0  0  0
944949  1  0  0  0
944950  1  0  0  0
945951  1  0  0  0
945952  1  0  0  0
M  CHG  8   8   1 154   1 220   1 265  -1 590  -1 633   1 655  -1 699  -1
M  CHG  3 733   1 837   1 877  -1
M  END
> <s_m_entry_id>
190

> <s_m_entry_name>
pocket_pv.1

> <s_pdb_PDB_TITLE>
EPIDERMAL GROWTH FACTOR RECEPTOR TYROSINE KINASE DOMAIN WITH 4-ANILINOQUINAZOLINE INHIBITOR ERLOTINIB

> <s_pdb_PDB_ID>
1M17

> <s_pdb_PDB_format_version>
3.0

> <r_pdb_PDB_RESOLUTION>
2.6

> <s_pdb_PDB_EXPDTA>
X-RAY DIFFRACTION

> <r_pdb_PDB_EXPDTA_TEMPERATURE>
100

> <r_pdb_PDB_EXPDTA_PH>
7

> <b_ppw_prepared>
1

> <s_ppw_prepared_with_version>
2021-2

> <b_ppw_created_disulfur>
1

> <r_ppw_preprocess_pH>
7.4

> <s_ppw_het_states>
eJxdk0FuwzAQA79i+OwWkmyLSr9S+AdBbz0F+Xu1u5XHSQ4GRRtLLqk85jx/Td/9t2nflikdy2RwB1aggA14O2FNwAwswBWIWkWtolZRq6hV1ISaUBNqQk2oCTWhJtSEmlBrqDXUmqsZ/g8wsluJMRLMhBk5lithUzIZR7yZpCPkF8LsFAqI7DM1RAPlSogZ9i6KeSGEU3sXfY0ZqxMbXwRxGerrW5mD8PXrZahva8UOwretbFt9F6V3Yj99KHbJ5xcK6+wit27lD8KdCuva37aVGxO9yI0JY2ojwsJ9iKuQuRVRZbEL8ZE++xeP2Wb1v1gc7XTrp35IKT+X6ef3fo/ncTz/AFNEvy0=

> <r_i_Potential_Energy-OPLS_2005>
-748.361074252252

> <r_i_RMS_Derivative-OPLS_2005>
0.0771297613056347

> <r_i_Max_Derivative-OPLS_2005>
0.808008744439584

> <r_i_Stretch_Energy-OPLS_2005>
120.570619799148

> <r_i_Bend_Energy-OPLS_2005>
490.863616525399

> <r_i_LJ-14_Energy-OPLS_2005>
1311.61360297293

> <r_i_El-14_Energy-OPLS_2005>
502.59279810532

> <r_i_Van_der_Waals_Energy-OPLS_2005>
-2702.68490549194

> <r_i_Electrostatic_Energy-OPLS_2005>
-1544.96449042276

> <r_i_Dihedral_Energy-OPLS_2005>
991.269233491974

> <r_i_target_temperature>
298

> <i_glide_grid_version>
91117

> <r_glide_gridbox_xcent>
21.2888529423077

> <r_glide_gridbox_ycent>
0.533928692307692

> <r_glide_gridbox_zcent>
52.3746374423077

> <r_glide_gridbox_xrange>
30

> <r_glide_gridbox_yrange>
30

> <r_glide_gridbox_zrange>
30

> <r_glide_gridbox_ligxrange>
10

> <r_glide_gridbox_ligyrange>
10

> <r_glide_gridbox_ligzrange>
10

> <s_glide_grid_type>
glide

> <b_glide_receptor>
1

> <s_m_Source_Path>
/home/bortolaa/Project/GT/mario-master/docking/set505protein_struct_1_site_1_set505ligs_train

> <s_m_Source_File>
pocket_pv.maegz

> <i_m_Source_File_Index>
1

> <s_m_subgroup_title>
505 training

> <s_m_subgroupid>
pocket_pv

> <b_m_subgroup_collapsed>
0

$$$$
BindingDB_50290631_mol_1
                    3D
 Schrodinger Suite 2021-2.
 41 44  0  0  1  0            999 V2000
   22.0762   -0.1670   53.5031 C   0  0  0  0  0  0
   23.4438   -0.1060   53.8578 C   0  0  0  0  0  0
   24.3109    0.7806   53.1997 N   0  0  0  0  0  0
   21.2707   -1.1058   54.1802 C   0  0  0  0  0  0
   21.5189    0.6418   52.4957 C   0  0  0  0  0  0
   23.9414   -0.8930   54.8227 N   0  0  0  0  0  0
   19.9072   -1.2028   53.8386 C   0  0  0  0  0  0
   25.6965    0.9857   53.3337 C   0  0  0  0  0  0
   20.1614    0.5221   52.1451 C   0  0  0  0  0  0
   19.3404   -0.3822   52.8373 C   0  0  0  0  0  0
   21.8036   -1.8882   55.1378 N   0  0  0  0  0  0
   26.7119   -0.0021   53.2935 C   0  0  0  0  0  0
   23.0943   -1.7279   55.4086 C   0  0  0  0  0  0
   27.4128    2.6954   53.5547 N   0  0  0  0  0  0
   28.0546    0.3872   53.4751 C   0  0  0  0  0  0
   26.1320    2.3187   53.4267 C   0  0  0  0  0  0
   19.5897    1.2715   51.1485 O   0  0  0  0  0  0
   18.0165   -0.3932   52.4648 O   0  0  0  0  0  0
   28.3479    1.7426   53.6102 C   0  0  0  0  0  0
   26.4621   -1.3513   53.0058 C   0  0  0  0  0  0
   29.1025   -0.5436   53.4953 C   0  0  0  0  0  0
   17.1059   -1.1380   53.2425 C   0  0  0  0  0  0
   20.3973    1.5650   50.0212 C   0  0  0  0  0  0
   27.5150   -2.2865   52.9747 C   0  0  0  0  0  0
   28.8308   -1.8948   53.2736 C   0  0  0  0  0  0
   23.8218    1.5630   52.7983 H   0  0  0  0  0  0
   22.1360    1.3511   51.9659 H   0  0  0  0  0  0
   19.3026   -1.9112   54.3819 H   0  0  0  0  0  0
   23.5021   -2.3715   56.1733 H   0  0  0  0  0  0
   25.4187    3.1307   53.4187 H   0  0  0  0  0  0
   29.3663    2.0885   53.7336 H   0  0  0  0  0  0
   25.4543   -1.6668   52.7918 H   0  0  0  0  0  0
   30.1186   -0.2168   53.6648 H   0  0  0  0  0  0
   16.0892   -0.9551   52.8911 H   0  0  0  0  0  0
   17.2920   -2.2094   53.1601 H   0  0  0  0  0  0
   17.1474   -0.8656   54.2975 H   0  0  0  0  0  0
   19.7633    1.8653   49.1886 H   0  0  0  0  0  0
   20.9680    0.6919   49.6990 H   0  0  0  0  0  0
   21.0880    2.3869   50.2209 H   0  0  0  0  0  0
   27.3059   -3.3234   52.7558 H   0  0  0  0  0  0
   29.6289   -2.6247   53.2770 H   0  0  0  0  0  0
  1  2  2  0  0  0
  1  4  1  0  0  0
  1  5  1  0  0  0
  2  3  1  0  0  0
  2  6  1  0  0  0
  3  8  1  0  0  0
  3 26  1  0  0  0
  4  7  1  0  0  0
  4 11  2  0  0  0
  5  9  2  0  0  0
  5 27  1  0  0  0
  6 13  2  0  0  0
  7 10  2  0  0  0
  7 28  1  0  0  0
  8 12  2  0  0  0
  8 16  1  0  0  0
  9 10  1  0  0  0
  9 17  1  0  0  0
 10 18  1  0  0  0
 11 13  1  0  0  0
 12 15  1  0  0  0
 12 20  1  0  0  0
 13 29  1  0  0  0
 14 16  2  0  0  0
 14 19  1  0  0  0
 15 19  2  0  0  0
 15 21  1  0  0  0
 16 30  1  0  0  0
 17 23  1  0  0  0
 18 22  1  0  0  0
 19 31  1  0  0  0
 20 24  2  0  0  0
 20 32  1  0  0  0
 21 25  2  0  0  0
 21 33  1  0  0  0
 22 34  1  0  0  0
 22 35  1  0  0  0
 22 36  1  0  0  0
 23 37  1  0  0  0
 23 38  1  0  0  0
 23 39  1  0  0  0
 24 25  1  0  0  0
 24 40  1  0  0  0
 25 41  1  0  0  0
M  END
> <s_m_entry_id>
191

> <s_m_entry_name>
pocket_pv.2

> <s_m_Source_Path>
/home/bortolaa/Project/GT/mario-master/docking/set505protein_struct_1_site_1_set505ligs_train

> <s_m_Source_File>
pocket_pv.maegz

> <i_m_Source_File_Index>
2

> <From>
www.bindingDB.org

> <BindingDB Reactant_set_id>
50007195

> <Ligand InChI>
InChI=1S/C19H16N4O2/c1-24-17-7-14-15(8-18(17)25-2)21-11-22-19(14)23-16-10-20-9-12-5-3-4-6-13(12)16/h3-11H,1-2H3,(H,21,22,23)

> <Ligand InChI Key>
VLKHXGYXGJCXCH-UHFFFAOYSA-N

> <BindingDB MonomerID>
50290631

> <BindingDB Ligand Name>
(6,7-Dimethoxy-quinazolin-4-yl)-isoquinolin-4-yl-amine::CHEMBL329867

> <Target Name Assigned by Curator or DataSource>
Epidermal growth factor receptor

> <Target Source Organism According to Curator or DataSource>
Homo sapiens

> <Ki (nM)>


> <Kd (nM)>


> <EC50 (nM)>


> <kon (M-1-s-1)>


> <koff (s-1)>


> <pH>


> <Temp C>


> <Curation/DataSource>
ChEMBL

> <Article DOI>
10.1016/S0960-894X(97)10059-2

> <PMID>


> <PubChem AID>


> <Patent Number>


> <Authors>
Gibson, KH; Grundy, W; Godfrey, AA; Woodburn, JR; Ashton, SE; Curry, BJ; Scarlett, L; Barker, AJ; Brown, DS

> <Institution>
TBA

> <Link to Ligand in BindingDB>
http://www.bindingdb.org/bind/chemsearch/marvin/MolStructure.jsp?monomerid=50290631

> <Link to Ligand-Target Pair in BindingDB>
http://www.bindingdb.org/jsp/dbsearch/PrimarySearch_ki.jsp?energyterm=kJ/mole&tag=r21&monomerid=50290631&enzyme=Epidermal+growth+factor+receptor&column=ki&startPg=0&Increment=50&submit=Search

> <Ligand HET ID in PDB>


> <PDB ID(s) for Ligand-Target Complex>


> <PubChem CID>
10065338

> <PubChem SID>
104132183

> <ChEBI ID of Ligand>


> <ChEMBL ID of Ligand>
CHEMBL329867

> <DrugBank ID of Ligand>


> <IUPHAR_GRAC ID of Ligand>


> <KEGG ID of Ligand>


> <ZINC ID of Ligand>
ZINC03815158

> <Number of Protein Chains in Target (>
1

> <BindingDB Target Chain Sequence>
MRPSGTAGAALLALLAALCPASRALEEKKVCQGTSNKLTQLGTFEDHFLSLQRMFNNCEVVLGNLEITYVQRNYDLSFLKTIQEVAGYVLIALNTVERIPLENLQIIRGNMYYENSYALAVLSNYDANKTGLKELPMRNLQEILHGAVRFSNNPALCNVESIQWRDIVSSDFLSNMSMDFQNHLGSCQKCDPSCPNGSCWGAGEENCQKLTKIICAQQCSGRCRGKSPSDCCHNQCAAGCTGPRESDCLVCRKFRDEATCKDTCPPLMLYNPTTYQMDVNPEGKYSFGATCVKKCPRNYVVTDHGSCVRACGADSYEMEEDGVRKCKKCEGPCRKVCNGIGIGEFKDSLSINATNIKHFKNCTSISGDLHILPVAFRGDSFTHTPPLDPQELDILKTVKEITGFLLIQAWPENRTDLHAFENLEIIRGRTKQHGQFSLAVVSLNITSLGLRSLKEISDGDVIISGNKNLCYANTINWKKLFGTSGQKTKIISNRGENSCKATGQVCHALCSPEGCWGPEPRDCVSCRNVSRGRECVDKCNLLEGEPREFVENSECIQCHPECLPQAMNITCTGRGPDNCIQCAHYIDGPHCVKTCPAGVMGENNTLVWKYADAGHVCHLCHPNCTYGCTGPGLEGCPTNGPKIPSIATGMVGALLLLLVVALGIGLFMRRRHIVRKRTLRRLLQERELVEPLTPSGEAPNQALLRILKETEFKKIKVLGSGAFGTVYKGLWIPEGEKVKIPVAIKELREATSPKANKEILDEAYVMASVDNPHVCRLLGICLTSTVQLITQLMPFGCLLDYVREHKDNIGSQYLLNWCVQIAKGMNYLEDRRLVHRDLAARNVLVKTPQHVKITDFGLAKLLGAEEKEYHAEGGKVPIKWMALESILHRIYTHQSDVWSYGVTVWELMTFGSKPYDGIPASEISSILEKGERLPQPPICTIDVYMIMVKCWMIDADSRPKFRELIIEFSKMARDPQRYLVIQGDERMHLPSPTDSNFYRALMDEEDMDDVVDADEYLIPQQGFFSSPSTSRTPLLSSLSATSNNSTVACIDRNGLQSCPIKEDSFLQRYSSDPTGALTEDSIDDTFLPVPEYINQSVPKRPAGSVQNPVYHNQPLNPAPSRDPHYQDPHSTAVGNPEYLNTVQPTCVNSTFDSPAHWAQKGSHQISLDNPDYQQDFFPKEAKPNGIFKGSTAENAEYLRVAPQSSEFIGA

> <PDB ID(s) of Target Chain>
1IVO,1M14,1M17,1MOX,1XKK,1Z9I,2GS2,2GS6,2ITW,2ITX,2ITY,2J5E,2J5F,2J6M,2RF9,2RGP,3B2V,3BEL,3GOP,3POZ,3QWQ,3VJO,3W2O,3W2P,3W2Q,3W2R,3W2S,3W32,3W33,4G5J,4I23,4JQ7,4JQ8,4JR3,4JRV,4KRO,4LI5,4RJ4,4RJ5,4RJ6,4RJ7,4RJ8,4TKS,4UIP,4UV7,4WKQ,4WRG,4ZAU,5C8K,5C8M,5C8N,5CAL,5CAN,5CAO,5CAP,5CAQ,5CAS,5CAU,5CAV,5EDP,5EDQ,5EDR,5EM5,5EM6,5EM7,5EM8,5FED,5GNK,5HCX,5HCY,5HCZ,5HIB,5HIC,5UGB,5WB7,5WB8,5Y25,6S89,6S8A

> <UniProt (SwissProt) Recommended Name of Target Chain>
Epidermal growth factor receptor

> <UniProt (SwissProt) Entry Name of Target Chain>
EGFR_HUMAN

> <UniProt (SwissProt) Primary ID of Target Chain>
P00533

> <UniProt (SwissProt) Secondary ID(s) of Target Chain>
O00688,O00732,P06268,Q14225,Q68GS5,Q92795,Q9BZS2,Q9GZX1,Q9H2C9,Q9H3C9,Q9UMD7,Q9UMD8,Q9UMG5

> <UniProt (SwissProt) Alternative ID(s) of Target Chain>


> <UniProt (TrEMBL) Submitted Name of Target Chain>


> <UniProt (TrEMBL) Entry Name of Target Chain>


> <UniProt (TrEMBL) Primary ID of Target Chain>


> <UniProt (TrEMBL) Secondary ID(s) of Target Chain>


> <UniProt (TrEMBL) Alternative ID(s) of Target Chain>


> <training label>
6.4437

> <i_lp_mmshare_version>
54117

> <s_epik_input>
W0NIM11PYyhbY0hdMSljKE9bQ0gzXSlbY0hdYyhjMTIpbltjSF1uYzJbTkhdYzNbY0hdbltjSF1jKGMzNClbY0hdW2NIXVtjSF1bY0hdNA==

> <s_epik_cmdline>
J2VwaWtfcHl0aG9uJywgJy1waHQnLCAnMC4xJywgJy1waCcsICc3LjQnLCAnLXRuJywgJzgnLCAnLW1hJywgJzIwMCcsICctaW1hZScsICc8aW5maWxlLm1hZT4nLCAnLW9tYWUnLCAnPG91dGZpbGUubWFlPic=

> <r_lp_tautomer_probability>
1

> <r_epik_Ionization_Penalty>
  0.0159

> <r_epik_Ionization_Penalty_Charging>
  0.0000

> <r_epik_Ionization_Penalty_Neutral>
  0.0159

> <r_epik_State_Penalty>
  0.0000

> <r_epik_Charging_Adjusted_Penalty>
0

> <i_epik_Tot_Q>
0

> <i_epik_Tot_abs_Q>
0

> <i_f3d_flags>
0

> <s_lp_Force_Field>
OPLS_2005

> <r_lp_Energy>
19.707269

> <b_lp_Chiralities_Consistent>
1

> <s_lp_Variant>
BindingDB_50290631_mol_1-1

> <s_i_glide_gridfile>
struct_1_site_1

> <i_i_glide_lignum>
116

> <i_i_glide_rotatable_bonds>
4

> <r_i_docking_score>
-8.90454302972733

> <r_i_glide_ligand_efficiency>
-0.356181721189093

> <r_i_glide_ligand_efficiency_sa>
-1.04148166966663

> <r_i_glide_ligand_efficiency_ln>
-2.1106435456667

> <r_i_glide_gscore>
-8.90454302972733

> <r_i_glide_lipo>
-3.67945829441159

> <r_i_glide_hbond>
-0.32

> <r_i_glide_metal>
0

> <r_i_glide_rewards>
-2.30920611304204

> <r_i_glide_evdw>
-43.5473175048828

> <r_i_glide_ecoul>
-5.06340169906616

> <r_i_glide_erotb>
0.340997507830363

> <r_i_glide_esite>
0

> <r_i_glide_emodel>
-56.8457434721517

> <r_i_glide_energy>
-48.610719203949

> <r_i_glide_einternal>
5.1065673828125

> <i_i_glide_confnum>
6

> <i_i_glide_posenum>
345

> <r_i_glide_eff_state_penalty>
0

> <IC50 (nM)>
360

> <r_glide_shape_similarity>
0.83446079492569

> <s_m_subgroup_title>
505 training

> <s_m_subgroupid>
pocket_pv

> <b_m_subgroup_collapsed>
0

$$$$
BindingDB_50290637_mol_1
                    3D
 Schrodinger Suite 2021-2.
 41 44  0  0  1  0            999 V2000
   22.0767   -0.1703   53.5052 C   0  0  0  0  0  0
   23.4447   -0.1110   53.8585 C   0  0  0  0  0  0
   24.3156    0.7643   53.1977 N   0  0  0  0  0  0
   25.6958    0.9512   53.3411 C   0  0  0  0  0  0
   21.2716   -1.1084   54.1848 C   0  0  0  0  0  0
   21.5211    0.6386   52.4959 C   0  0  0  0  0  0
   23.9389   -0.8988   54.8254 N   0  0  0  0  0  0
   19.9100   -1.2020   53.8410 C   0  0  0  0  0  0
   20.1642    0.5213   52.1425 C   0  0  0  0  0  0
   19.3447   -0.3815   52.8371 C   0  0  0  0  0  0
   26.0129    2.2444   53.4686 N   0  0  0  0  0  0
   21.8028   -1.8883   55.1441 N   0  0  0  0  0  0
   26.6970   -0.0536   53.2733 C   0  0  0  0  0  0
   23.0947   -1.7323   55.4153 C   0  0  0  0  0  0
   28.0452    0.3271   53.4434 C   0  0  0  0  0  0
   27.3029    2.5901   53.5912 C   0  0  0  0  0  0
   19.5857    1.2595   51.1403 O   0  0  0  0  0  0
   18.0226   -0.3977   52.4600 O   0  0  0  0  0  0
   26.4357   -1.4029   53.0022 C   0  0  0  0  0  0
   28.3540    1.6738   53.6010 C   0  0  0  0  0  0
   29.0886   -0.6110   53.4438 C   0  0  0  0  0  0
   17.1115   -1.1435   53.2374 C   0  0  0  0  0  0
   20.3970    1.5965   50.0270 C   0  0  0  0  0  0
   27.4834   -2.3464   52.9745 C   0  0  0  0  0  0
   28.8094   -1.9613   53.2237 C   0  0  0  0  0  0
   23.8529    1.5888   52.8506 H   0  0  0  0  0  0
   22.1421    1.3463   51.9710 H   0  0  0  0  0  0
   19.3033   -1.9111   54.3818 H   0  0  0  0  0  0
   23.5070   -2.3731   56.1811 H   0  0  0  0  0  0
   27.5095    3.6315   53.7558 H   0  0  0  0  0  0
   25.4253   -1.7175   52.8101 H   0  0  0  0  0  0
   29.3735    2.0104   53.7332 H   0  0  0  0  0  0
   30.1102   -0.2915   53.5978 H   0  0  0  0  0  0
   16.0955   -0.9665   52.8846 H   0  0  0  0  0  0
   17.3039   -2.2125   53.1491 H   0  0  0  0  0  0
   17.1535   -0.8653   54.2911 H   0  0  0  0  0  0
   19.7641    1.9100   49.1951 H   0  0  0  0  0  0
   20.9951    0.7465   49.6920 H   0  0  0  0  0  0
   21.0651    2.4247   50.2638 H   0  0  0  0  0  0
   27.2670   -3.3832   52.7730 H   0  0  0  0  0  0
   29.6015   -2.6971   53.2110 H   0  0  0  0  0  0
  1  2  2  0  0  0
  1  5  1  0  0  0
  1  6  1  0  0  0
  2  3  1  0  0  0
  2  7  1  0  0  0
  3  4  1  0  0  0
  3 26  1  0  0  0
  4 11  1  0  0  0
  4 13  2  0  0  0
  5  8  1  0  0  0
  5 12  2  0  0  0
  6  9  2  0  0  0
  6 27  1  0  0  0
  7 14  2  0  0  0
  8 10  2  0  0  0
  8 28  1  0  0  0
  9 10  1  0  0  0
  9 17  1  0  0  0
 10 18  1  0  0  0
 11 16  2  0  0  0
 12 14  1  0  0  0
 13 15  1  0  0  0
 13 19  1  0  0  0
 14 29  1  0  0  0
 15 20  2  0  0  0
 15 21  1  0  0  0
 16 20  1  0  0  0
 16 30  1  0  0  0
 17 23  1  0  0  0
 18 22  1  0  0  0
 19 24  2  0  0  0
 19 31  1  0  0  0
 20 32  1  0  0  0
 21 25  2  0  0  0
 21 33  1  0  0  0
 22 34  1  0  0  0
 22 35  1  0  0  0
 22 36  1  0  0  0
 23 37  1  0  0  0
 23 38  1  0  0  0
 23 39  1  0  0  0
 24 25  1  0  0  0
 24 40  1  0  0  0
 25 41  1  0  0  0
M  END
> <s_m_entry_id>
192

> <s_m_entry_name>
pocket_pv.3

> <s_m_Source_Path>
/home/bortolaa/Project/GT/mario-master/docking/set505protein_struct_1_site_1_set505ligs_train

> <s_m_Source_File>
pocket_pv.maegz

> <i_m_Source_File_Index>
3

> <From>
www.bindingDB.org

> <BindingDB Reactant_set_id>
50007198

> <Ligand InChI>
InChI=1S/C19H16N4O2/c1-24-16-9-14-15(10-17(16)25-2)21-11-22-19(14)23-18-13-6-4-3-5-12(13)7-8-20-18/h3-11H,1-2H3,(H,20,21,22,23)

> <Ligand InChI Key>
CCFFFEGDTIMEEI-UHFFFAOYSA-N

> <BindingDB MonomerID>
50290637

> <BindingDB Ligand Name>
(6,7-Dimethoxy-quinazolin-4-yl)-isoquinolin-1-yl-amine::CHEMBL330323

> <Target Name Assigned by Curator or DataSource>
Epidermal growth factor receptor

> <Target Source Organism According to Curator or DataSource>
Homo sapiens

> <Ki (nM)>


> <IC50 (nM)>
1800

> <Kd (nM)>


> <EC50 (nM)>


> <kon (M-1-s-1)>


> <koff (s-1)>


> <pH>


> <Temp C>


> <Curation/DataSource>
ChEMBL

> <Article DOI>
10.1016/S0960-894X(97)10059-2

> <PMID>


> <PubChem AID>


> <Patent Number>


> <Authors>
Gibson, KH; Grundy, W; Godfrey, AA; Woodburn, JR; Ashton, SE; Curry, BJ; Scarlett, L; Barker, AJ; Brown, DS

> <Institution>
TBA

> <Link to Ligand in BindingDB>
http://www.bindingdb.org/bind/chemsearch/marvin/MolStructure.jsp?monomerid=50290637

> <Link to Ligand-Target Pair in BindingDB>
http://www.bindingdb.org/jsp/dbsearch/PrimarySearch_ki.jsp?energyterm=kJ/mole&tag=r21&monomerid=50290637&enzyme=Epidermal+growth+factor+receptor&column=ki&startPg=0&Increment=50&submit=Search

> <Ligand HET ID in PDB>


> <PDB ID(s) for Ligand-Target Complex>


> <PubChem CID>
23366746

> <PubChem SID>
104132189

> <ChEBI ID of Ligand>


> <ChEMBL ID of Ligand>
CHEMBL330323

> <DrugBank ID of Ligand>


> <IUPHAR_GRAC ID of Ligand>


> <KEGG ID of Ligand>


> <ZINC ID of Ligand>
ZINC03815305

> <Number of Protein Chains in Target (>
1

> <BindingDB Target Chain Sequence>
MRPSGTAGAALLALLAALCPASRALEEKKVCQGTSNKLTQLGTFEDHFLSLQRMFNNCEVVLGNLEITYVQRNYDLSFLKTIQEVAGYVLIALNTVERIPLENLQIIRGNMYYENSYALAVLSNYDANKTGLKELPMRNLQEILHGAVRFSNNPALCNVESIQWRDIVSSDFLSNMSMDFQNHLGSCQKCDPSCPNGSCWGAGEENCQKLTKIICAQQCSGRCRGKSPSDCCHNQCAAGCTGPRESDCLVCRKFRDEATCKDTCPPLMLYNPTTYQMDVNPEGKYSFGATCVKKCPRNYVVTDHGSCVRACGADSYEMEEDGVRKCKKCEGPCRKVCNGIGIGEFKDSLSINATNIKHFKNCTSISGDLHILPVAFRGDSFTHTPPLDPQELDILKTVKEITGFLLIQAWPENRTDLHAFENLEIIRGRTKQHGQFSLAVVSLNITSLGLRSLKEISDGDVIISGNKNLCYANTINWKKLFGTSGQKTKIISNRGENSCKATGQVCHALCSPEGCWGPEPRDCVSCRNVSRGRECVDKCNLLEGEPREFVENSECIQCHPECLPQAMNITCTGRGPDNCIQCAHYIDGPHCVKTCPAGVMGENNTLVWKYADAGHVCHLCHPNCTYGCTGPGLEGCPTNGPKIPSIATGMVGALLLLLVVALGIGLFMRRRHIVRKRTLRRLLQERELVEPLTPSGEAPNQALLRILKETEFKKIKVLGSGAFGTVYKGLWIPEGEKVKIPVAIKELREATSPKANKEILDEAYVMASVDNPHVCRLLGICLTSTVQLITQLMPFGCLLDYVREHKDNIGSQYLLNWCVQIAKGMNYLEDRRLVHRDLAARNVLVKTPQHVKITDFGLAKLLGAEEKEYHAEGGKVPIKWMALESILHRIYTHQSDVWSYGVTVWELMTFGSKPYDGIPASEISSILEKGERLPQPPICTIDVYMIMVKCWMIDADSRPKFRELIIEFSKMARDPQRYLVIQGDERMHLPSPTDSNFYRALMDEEDMDDVVDADEYLIPQQGFFSSPSTSRTPLLSSLSATSNNSTVACIDRNGLQSCPIKEDSFLQRYSSDPTGALTEDSIDDTFLPVPEYINQSVPKRPAGSVQNPVYHNQPLNPAPSRDPHYQDPHSTAVGNPEYLNTVQPTCVNSTFDSPAHWAQKGSHQISLDNPDYQQDFFPKEAKPNGIFKGSTAENAEYLRVAPQSSEFIGA

> <PDB ID(s) of Target Chain>
1IVO,1M14,1M17,1MOX,1XKK,1Z9I,2GS2,2GS6,2ITW,2ITX,2ITY,2J5E,2J5F,2J6M,2RF9,2RGP,3B2V,3BEL,3GOP,3POZ,3QWQ,3VJO,3W2O,3W2P,3W2Q,3W2R,3W2S,3W32,3W33,4G5J,4I23,4JQ7,4JQ8,4JR3,4JRV,4KRO,4LI5,4RJ4,4RJ5,4RJ6,4RJ7,4RJ8,4TKS,4UIP,4UV7,4WKQ,4WRG,4ZAU,5C8K,5C8M,5C8N,5CAL,5CAN,5CAO,5CAP,5CAQ,5CAS,5CAU,5CAV,5EDP,5EDQ,5EDR,5EM5,5EM6,5EM7,5EM8,5FED,5GNK,5HCX,5HCY,5HCZ,5HIB,5HIC,5UGB,5WB7,5WB8,5Y25,6S89,6S8A

> <UniProt (SwissProt) Recommended Name of Target Chain>
Epidermal growth factor receptor

> <UniProt (SwissProt) Entry Name of Target Chain>
EGFR_HUMAN

> <UniProt (SwissProt) Primary ID of Target Chain>
P00533

> <UniProt (SwissProt) Secondary ID(s) of Target Chain>
O00688,O00732,P06268,Q14225,Q68GS5,Q92795,Q9BZS2,Q9GZX1,Q9H2C9,Q9H3C9,Q9UMD7,Q9UMD8,Q9UMG5

> <UniProt (SwissProt) Alternative ID(s) of Target Chain>


> <UniProt (TrEMBL) Submitted Name of Target Chain>


> <UniProt (TrEMBL) Entry Name of Target Chain>


> <UniProt (TrEMBL) Primary ID of Target Chain>


> <UniProt (TrEMBL) Secondary ID(s) of Target Chain>


> <UniProt (TrEMBL) Alternative ID(s) of Target Chain>


> <training label>
5.74473

> <i_lp_mmshare_version>
54117

> <s_epik_input>
W0NIM11PYyhbY0hdMSljKE9bQ0gzXSlbY0hdYyhjMTIpbltjSF1uYzJbTkhdYzNuW2NIXVtjSF1jKGMzNClbY0hdW2NIXVtjSF1bY0hdNA==

> <s_epik_cmdline>
J2VwaWtfcHl0aG9uJywgJy1waHQnLCAnMC4xJywgJy1waCcsICc3LjQnLCAnLXRuJywgJzgnLCAnLW1hJywgJzIwMCcsICctaW1hZScsICc8aW5maWxlLm1hZT4nLCAnLW9tYWUnLCAnPG91dGZpbGUubWFlPic=

> <r_lp_tautomer_probability>
0.999978000241998

> <r_epik_Ionization_Penalty>
  0.0525

> <r_epik_Ionization_Penalty_Charging>
  0.0000

> <r_epik_Ionization_Penalty_Neutral>
  0.0525

> <r_epik_State_Penalty>
  0.0443

> <r_epik_Charging_Adjusted_Penalty>
0.044317051046412

> <i_epik_Tot_Q>
0

> <i_epik_Tot_abs_Q>
0

> <i_f3d_flags>
0

> <s_lp_Force_Field>
OPLS_2005

> <r_lp_Energy>
22.969295

> <b_lp_Chiralities_Consistent>
1

> <s_lp_Variant>
BindingDB_50290637_mol_1-1

> <s_i_glide_gridfile>
struct_1_site_1

> <i_i_glide_lignum>
56

> <i_i_glide_rotatable_bonds>
4

> <r_i_docking_score>
-8.88990844981174

> <r_i_glide_ligand_efficiency>
-0.35559633799247

> <r_i_glide_ligand_efficiency_sa>
-1.03976999881789

> <r_i_glide_ligand_efficiency_ln>
-2.10717471166373

> <r_i_glide_gscore>
-8.93420844981174

> <r_i_glide_lipo>
-3.68354896683679

> <r_i_glide_hbond>
-0.32

> <r_i_glide_metal>
0

> <r_i_glide_rewards>
-2.30226118640011

> <r_i_glide_evdw>
-42.1138763427734

> <r_i_glide_ecoul>
-5.7580132484436

> <r_i_glide_erotb>
0.340997507830363

> <r_i_glide_esite>
0

> <r_i_glide_emodel>
-54.8579622012915

> <r_i_glide_energy>
-47.871889591217

> <r_i_glide_einternal>
7.56897783279419

> <i_i_glide_confnum>
5

> <i_i_glide_posenum>
341

> <r_i_glide_eff_state_penalty>
0.0443

> <r_glide_shape_similarity>
0.833072483539581

> <s_m_subgroup_title>
505 training

> <s_m_subgroupid>
pocket_pv

> <b_m_subgroup_collapsed>
0

$$$$
BindingDB_50428416_mol_1
                    3D
 Schrodinger Suite 2021-2.
 50 52  0  0  1  0            999 V2000
   19.5612    1.2397   51.0694 O   0  0  0  0  0  0
   21.7973   -1.9039   55.1479 N   0  0  0  0  0  0
   20.3535    2.1381   50.2696 C   0  0  0  0  0  0
   21.5157    0.6183   52.4590 C   0  0  0  0  0  0
   19.3161   -0.3893   52.8216 C   0  0  0  0  0  0
   21.2616   -1.1206   54.1822 C   0  0  0  0  0  0
   24.2828    0.8550   53.2729 N   0  0  0  0  0  0
   17.0444   -1.1424   53.2446 C   0  0  0  0  0  0
   17.9744   -0.4010   52.4605 O   0  0  0  0  0  0
   23.0963   -1.7537   55.4167 C   0  0  0  0  0  0
   23.4371   -0.1039   53.8627 C   0  0  0  0  0  0
   22.0698   -0.1805   53.4884 C   0  0  0  0  0  0
   23.9404   -0.9053   54.8307 N   0  0  0  0  0  0
   20.1437    0.5164   52.1074 C   0  0  0  0  0  0
   19.8924   -1.2128   53.8337 C   0  0  0  0  0  0
   25.6805    0.9469   53.3360 C   0  0  0  0  0  0
   26.5013   -0.2109   53.3234 C   0  0  0  0  0  0
   27.9064   -0.0977   53.3902 C   0  0  0  0  0  0
   28.4878    1.1872   53.4714 C   0  0  0  0  0  0
   27.6774    2.3452   53.4368 C   0  0  0  0  0  0
   26.2732    2.2290   53.3704 C   0  0  0  0  0  0
   28.8995   -1.5217   53.3759 Cl  0  0  0  0  0  0
   20.6842    3.4349   51.0738 C   0  0  0  0  0  0
   21.8323    4.2040   50.5470 N   0  0  1  0  0  0
   29.8289    1.3086   53.5861 F   0  0  0  0  0  0
   22.4539    5.0130   51.6161 C   0  0  0  0  0  0
   23.5549    5.9798   51.0756 C   0  0  0  0  0  0
   24.2888    6.6754   52.1753 N   0  3  0  0  0  0
   19.7911    2.3988   49.3736 H   0  0  0  0  0  0
   21.2514    1.6312   49.9224 H   0  0  0  0  0  0
   22.1643    1.2874   51.9182 H   0  0  0  0  0  0
   23.8131    1.6330   52.8335 H   0  0  0  0  0  0
   16.0314   -0.9451   52.8908 H   0  0  0  0  0  0
   17.2116   -2.2149   53.1625 H   0  0  0  0  0  0
   17.0951   -0.8646   54.2977 H   0  0  0  0  0  0
   23.5058   -2.4012   56.1762 H   0  0  0  0  0  0
   19.2867   -1.9147   54.3810 H   0  0  0  0  0  0
   26.0543   -1.1912   53.2655 H   0  0  0  0  0  0
   28.1352    3.3226   53.4820 H   0  0  0  0  0  0
   25.6605    3.1219   53.3600 H   0  0  0  0  0  0
   20.9085    3.1662   52.1097 H   0  0  0  0  0  0
   19.7956    4.0708   51.1213 H   0  0  0  0  0  0
   22.5165    3.6035   50.0919 H   0  0  0  0  0  0
   22.8846    4.3406   52.3638 H   0  0  0  0  0  0
   21.6850    5.5903   52.1387 H   0  0  0  0  0  0
   23.0983    6.7405   50.4407 H   0  0  0  0  0  0
   24.2835    5.4476   50.4591 H   0  0  0  0  0  0
   24.8578    7.4376   51.8116 H   0  0  0  0  0  0
   24.9558    6.0509   52.6443 H   0  0  0  0  0  0
   23.6426    7.0713   52.8708 H   0  0  0  0  0  0
  1  3  1  0  0  0
  1 14  1  0  0  0
  2  6  1  0  0  0
  2 10  2  0  0  0
  3 23  1  0  0  0
  3 29  1  0  0  0
  3 30  1  0  0  0
  4 12  2  0  0  0
  4 14  1  0  0  0
  4 31  1  0  0  0
  5  9  1  0  0  0
  5 14  2  0  0  0
  5 15  1  0  0  0
  6 12  1  0  0  0
  6 15  2  0  0  0
  7 11  1  0  0  0
  7 16  1  0  0  0
  7 32  1  0  0  0
  8  9  1  0  0  0
  8 33  1  0  0  0
  8 34  1  0  0  0
  8 35  1  0  0  0
 10 13  1  0  0  0
 10 36  1  0  0  0
 11 12  1  0  0  0
 11 13  2  0  0  0
 15 37  1  0  0  0
 16 17  2  0  0  0
 16 21  1  0  0  0
 17 18  1  0  0  0
 17 38  1  0  0  0
 18 19  2  0  0  0
 18 22  1  0  0  0
 19 20  1  0  0  0
 19 25  1  0  0  0
 20 21  2  0  0  0
 20 39  1  0  0  0
 21 40  1  0  0  0
 23 24  1  0  0  0
 23 41  1  0  0  0
 23 42  1  0  0  0
 24 26  1  0  0  0
 24 43  1  0  0  0
 26 27  1  0  0  0
 26 44  1  0  0  0
 26 45  1  0  0  0
 27 28  1  0  0  0
 27 46  1  0  0  0
 27 47  1  0  0  0
 28 48  1  0  0  0
 28 49  1  0  0  0
 28 50  1  0  0  0
M  CHG  1  28   1
M  END
> <s_m_entry_id>
193

> <s_m_entry_name>
pocket_pv.4

> <s_m_Source_Path>
/home/bortolaa/Project/GT/mario-master/docking/set505protein_struct_1_site_1_set505ligs_train

> <s_m_Source_File>
pocket_pv.maegz

> <i_m_Source_File_Index>
4

> <From>
www.bindingDB.org

> <BindingDB Reactant_set_id>
51049784

> <Ligand InChI>
InChI=1S/C19H21ClFN5O2/c1-27-17-10-16-13(9-18(17)28-7-6-23-5-4-22)19(25-11-24-16)26-12-2-3-15(21)14(20)8-12/h2-3,8-11,23H,4-7,22H2,1H3,(H,24,25,26)

> <Ligand InChI Key>
YCDMAWQWOBHPSZ-UHFFFAOYSA-N

> <BindingDB MonomerID>
50428416

> <BindingDB Ligand Name>
CHEMBL2334002

> <Target Name Assigned by Curator or DataSource>
Epidermal growth factor receptor

> <Target Source Organism According to Curator or DataSource>
Homo sapiens

> <Ki (nM)>


> <Kd (nM)>


> <EC50 (nM)>


> <kon (M-1-s-1)>


> <koff (s-1)>


> <pH>


> <Temp C>


> <Curation/DataSource>
ChEMBL

> <Article DOI>
10.1016/j.ejmech.2012.07.036

> <PubChem AID>


> <Patent Number>


> <Authors>
Lu, S; Zheng, W; Ji, L; Luo, Q; Hao, X; Li, X; Wang, F

> <Institution>
Chinese Academy of Sciences

> <Link to Ligand in BindingDB>
http://www.bindingdb.org/bind/chemsearch/marvin/MolStructure.jsp?monomerid=50428416

> <Link to Ligand-Target Pair in BindingDB>
http://www.bindingdb.org/jsp/dbsearch/PrimarySearch_ki.jsp?energyterm=kJ/mole&tag=r21&monomerid=50428416&enzyme=Epidermal+growth+factor+receptor&column=ki&startPg=0&Increment=50&submit=Search

> <Ligand HET ID in PDB>


> <PDB ID(s) for Ligand-Target Complex>


> <PubChem CID>
71579403

> <PubChem SID>
164157291

> <ChEBI ID of Ligand>


> <ChEMBL ID of Ligand>
CHEMBL2334002

> <DrugBank ID of Ligand>


> <IUPHAR_GRAC ID of Ligand>


> <KEGG ID of Ligand>


> <ZINC ID of Ligand>
ZINC95592658

> <Number of Protein Chains in Target (>
1

> <BindingDB Target Chain Sequence>
MRPSGTAGAALLALLAALCPASRALEEKKVCQGTSNKLTQLGTFEDHFLSLQRMFNNCEVVLGNLEITYVQRNYDLSFLKTIQEVAGYVLIALNTVERIPLENLQIIRGNMYYENSYALAVLSNYDANKTGLKELPMRNLQEILHGAVRFSNNPALCNVESIQWRDIVSSDFLSNMSMDFQNHLGSCQKCDPSCPNGSCWGAGEENCQKLTKIICAQQCSGRCRGKSPSDCCHNQCAAGCTGPRESDCLVCRKFRDEATCKDTCPPLMLYNPTTYQMDVNPEGKYSFGATCVKKCPRNYVVTDHGSCVRACGADSYEMEEDGVRKCKKCEGPCRKVCNGIGIGEFKDSLSINATNIKHFKNCTSISGDLHILPVAFRGDSFTHTPPLDPQELDILKTVKEITGFLLIQAWPENRTDLHAFENLEIIRGRTKQHGQFSLAVVSLNITSLGLRSLKEISDGDVIISGNKNLCYANTINWKKLFGTSGQKTKIISNRGENSCKATGQVCHALCSPEGCWGPEPRDCVSCRNVSRGRECVDKCNLLEGEPREFVENSECIQCHPECLPQAMNITCTGRGPDNCIQCAHYIDGPHCVKTCPAGVMGENNTLVWKYADAGHVCHLCHPNCTYGCTGPGLEGCPTNGPKIPSIATGMVGALLLLLVVALGIGLFMRRRHIVRKRTLRRLLQERELVEPLTPSGEAPNQALLRILKETEFKKIKVLGSGAFGTVYKGLWIPEGEKVKIPVAIKELREATSPKANKEILDEAYVMASVDNPHVCRLLGICLTSTVQLITQLMPFGCLLDYVREHKDNIGSQYLLNWCVQIAKGMNYLEDRRLVHRDLAARNVLVKTPQHVKITDFGLAKLLGAEEKEYHAEGGKVPIKWMALESILHRIYTHQSDVWSYGVTVWELMTFGSKPYDGIPASEISSILEKGERLPQPPICTIDVYMIMVKCWMIDADSRPKFRELIIEFSKMARDPQRYLVIQGDERMHLPSPTDSNFYRALMDEEDMDDVVDADEYLIPQQGFFSSPSTSRTPLLSSLSATSNNSTVACIDRNGLQSCPIKEDSFLQRYSSDPTGALTEDSIDDTFLPVPEYINQSVPKRPAGSVQNPVYHNQPLNPAPSRDPHYQDPHSTAVGNPEYLNTVQPTCVNSTFDSPAHWAQKGSHQISLDNPDYQQDFFPKEAKPNGIFKGSTAENAEYLRVAPQSSEFIGA

> <PDB ID(s) of Target Chain>
1IVO,1M14,1M17,1MOX,1XKK,1Z9I,2GS2,2GS6,2ITW,2ITX,2ITY,2J5E,2J5F,2J6M,2RF9,2RGP,3B2V,3BEL,3GOP,3POZ,3QWQ,3VJO,3W2O,3W2P,3W2Q,3W2R,3W2S,3W32,3W33,4G5J,4I23,4JQ7,4JQ8,4JR3,4JRV,4KRO,4LI5,4RJ4,4RJ5,4RJ6,4RJ7,4RJ8,4TKS,4UIP,4UV7,4WKQ,4WRG,4ZAU,5C8K,5C8M,5C8N,5CAL,5CAN,5CAO,5CAP,5CAQ,5CAS,5CAU,5CAV,5EDP,5EDQ,5EDR,5EM5,5EM6,5EM7,5EM8,5FED,5GNK,5HCX,5HCY,5HCZ,5HIB,5HIC,5UGB,5WB7,5WB8,5Y25,6S89,6S8A

> <UniProt (SwissProt) Recommended Name of Target Chain>
Epidermal growth factor receptor

> <UniProt (SwissProt) Entry Name of Target Chain>
EGFR_HUMAN

> <UniProt (SwissProt) Primary ID of Target Chain>
P00533

> <UniProt (SwissProt) Secondary ID(s) of Target Chain>
O00688,O00732,P06268,Q14225,Q68GS5,Q92795,Q9BZS2,Q9GZX1,Q9H2C9,Q9H3C9,Q9UMD7,Q9UMD8,Q9UMG5

> <UniProt (SwissProt) Alternative ID(s) of Target Chain>


> <UniProt (TrEMBL) Submitted Name of Target Chain>


> <UniProt (TrEMBL) Entry Name of Target Chain>


> <UniProt (TrEMBL) Primary ID of Target Chain>


> <UniProt (TrEMBL) Secondary ID(s) of Target Chain>


> <UniProt (TrEMBL) Alternative ID(s) of Target Chain>


> <training label>
7.92082

> <i_lp_mmshare_version>
54117

> <s_epik_input>
W05IMl1bQ0gyXVtDSDJdW05IXVtDSDJdW0NIMl1PYyhjKFtjSF0xKU9bQ0gzXSlbY0hdYyhjMTIpYyhuW2NIXW4yKVtOSF1jM1tjSF1jKENsKWMoRilbY0hdW2NIXTM=

> <s_epik_cmdline>
J2VwaWtfcHl0aG9uJywgJy1waHQnLCAnMC4xJywgJy1waCcsICc3LjQnLCAnLXRuJywgJzgnLCAnLW1hJywgJzIwMCcsICctaW1hZScsICc8aW5maWxlLm1hZT4nLCAnLW9tYWUnLCAnPG91dGZpbGUubWFlPic=

> <r_lp_tautomer_probability>
0.999978000241998

> <r_epik_Ionization_Penalty>
  0.0487

> <r_epik_Ionization_Penalty_Charging>
  0.0067

> <r_epik_Ionization_Penalty_Neutral>
  0.0421

> <r_epik_State_Penalty>
  0.1374

> <r_epik_Charging_Adjusted_Penalty>
0.1440193275058

> <i_epik_Tot_Q>
1

> <i_epik_Tot_abs_Q>
1

> <i_f3d_flags>
0

> <s_lp_Force_Field>
OPLS_2005

> <r_lp_Energy>
24.272005

> <b_lp_Chiralities_Consistent>
1

> <s_lp_Variant>
BindingDB_50428416_mol_1-1

> <s_i_glide_gridfile>
struct_1_site_1

> <i_i_glide_lignum>
222

> <i_i_glide_rotatable_bonds>
9

> <r_i_docking_score>
-8.77605128282861

> <r_i_glide_ligand_efficiency>
-0.313430402958165

> <r_i_glide_ligand_efficiency_sa>
-0.951759304016156

> <r_i_glide_ligand_efficiency_ln>
-2.02577031213923

> <r_i_glide_gscore>
-8.91345128282861

> <r_i_glide_lipo>
-2.92197669461036

> <r_i_glide_hbond>
-0.513584212312453

> <r_i_glide_metal>
0

> <r_i_glide_rewards>
-1.7790239205301

> <r_i_glide_evdw>
-41.6429252624512

> <r_i_glide_ecoul>
-15.2261667251587

> <r_i_glide_erotb>
0.831626747652879

> <r_i_glide_esite>
-0.164421931132212

> <r_i_glide_emodel>
-73.2360004319275

> <r_i_glide_energy>
-56.8690919876099

> <r_i_glide_einternal>
4.94690608978271

> <i_i_glide_confnum>
27

> <i_i_glide_posenum>
73

> <r_i_glide_eff_state_penalty>
0.1374

> <IC50 (nM)>
12

> <PMID>
22867529

> <r_glide_shape_similarity>
0.805433690547943

> <s_m_subgroup_title>
505 training

> <s_m_subgroupid>
pocket_pv

> <b_m_subgroup_collapsed>
0

$$$$
BindingDB_50290634_mol_1
                    3D
 Schrodinger Suite 2021-2.
 41 44  0  0  1  0            999 V2000
   22.0524   -0.1618   53.5026 C   0  0  0  0  0  0
   23.3997   -0.0703   53.8757 C   0  0  0  0  0  0
   24.2281    0.8976   53.3020 N   0  0  0  0  0  0
   21.2611   -1.1095   54.1801 C   0  0  0  0  0  0
   21.5050    0.6435   52.4919 C   0  0  0  0  0  0
   23.9092   -0.8696   54.8300 N   0  0  0  0  0  0
   25.6063    0.8769   53.2810 C   0  0  0  0  0  0
   19.9026   -1.2060   53.8374 C   0  0  0  0  0  0
   26.2584    2.0366   53.4476 N   0  0  0  0  0  0
   20.1545    0.5180   52.1384 C   0  0  0  0  0  0
   19.3362   -0.3855   52.8347 C   0  0  0  0  0  0
   21.7965   -1.8918   55.1349 N   0  0  0  0  0  0
   23.0848   -1.7252   55.4079 C   0  0  0  0  0  0
   26.2343   -0.3488   53.0863 C   0  0  0  0  0  0
   27.6013   -0.4129   53.2351 C   0  0  0  0  0  0
   27.5992    1.9823   53.5489 C   0  0  0  0  0  0
   28.3054    0.7672   53.5075 C   0  0  0  0  0  0
   19.5885    1.2652   51.1357 O   0  0  0  0  0  0
   18.0140   -0.4035   52.4572 O   0  0  0  0  0  0
   28.2256   -1.6606   53.1509 C   0  0  0  0  0  0
   29.6747    0.6759   53.7660 C   0  0  0  0  0  0
   17.1049   -1.1535   53.2280 C   0  0  0  0  0  0
   20.3878    1.5197   49.9919 C   0  0  0  0  0  0
   29.5892   -1.7515   53.3988 C   0  0  0  0  0  0
   30.2921   -0.5882   53.7458 C   0  0  0  0  0  0
   23.7959    1.7507   52.9964 H   0  0  0  0  0  0
   22.1207    1.3611   51.9724 H   0  0  0  0  0  0
   19.2977   -1.9170   54.3782 H   0  0  0  0  0  0
   23.5010   -2.3624   56.1727 H   0  0  0  0  0  0
   25.6668   -1.2485   52.9068 H   0  0  0  0  0  0
   28.1047    2.9185   53.7368 H   0  0  0  0  0  0
   27.6589   -2.5561   52.9407 H   0  0  0  0  0  0
   30.2643    1.5513   54.0063 H   0  0  0  0  0  0
   16.0914   -0.9731   52.8693 H   0  0  0  0  0  0
   17.3048   -2.2217   53.1385 H   0  0  0  0  0  0
   17.1355   -0.8739   54.2813 H   0  0  0  0  0  0
   19.7502    1.8552   49.1735 H   0  0  0  0  0  0
   20.9051    0.6205   49.6564 H   0  0  0  0  0  0
   21.1196    2.3052   50.1793 H   0  0  0  0  0  0
   30.0818   -2.7121   53.3769 H   0  0  0  0  0  0
   31.3393   -0.6608   53.9978 H   0  0  0  0  0  0
  1  2  2  0  0  0
  1  4  1  0  0  0
  1  5  1  0  0  0
  2  3  1  0  0  0
  2  6  1  0  0  0
  3  7  1  0  0  0
  3 26  1  0  0  0
  4  8  1  0  0  0
  4 12  2  0  0  0
  5 10  2  0  0  0
  5 27  1  0  0  0
  6 13  2  0  0  0
  7  9  2  0  0  0
  7 14  1  0  0  0
  8 11  2  0  0  0
  8 28  1  0  0  0
  9 16  1  0  0  0
 10 11  1  0  0  0
 10 18  1  0  0  0
 11 19  1  0  0  0
 12 13  1  0  0  0
 13 29  1  0  0  0
 14 15  2  0  0  0
 14 30  1  0  0  0
 15 17  1  0  0  0
 15 20  1  0  0  0
 16 17  2  0  0  0
 16 31  1  0  0  0
 17 21  1  0  0  0
 18 23  1  0  0  0
 19 22  1  0  0  0
 20 24  2  0  0  0
 20 32  1  0  0  0
 21 25  2  0  0  0
 21 33  1  0  0  0
 22 34  1  0  0  0
 22 35  1  0  0  0
 22 36  1  0  0  0
 23 37  1  0  0  0
 23 38  1  0  0  0
 23 39  1  0  0  0
 24 25  1  0  0  0
 24 40  1  0  0  0
 25 41  1  0  0  0
M  END
> <s_m_entry_id>
194

> <s_m_entry_name>
pocket_pv.5

> <s_m_Source_Path>
/home/bortolaa/Project/GT/mario-master/docking/set505protein_struct_1_site_1_set505ligs_train

> <s_m_Source_File>
pocket_pv.maegz

> <i_m_Source_File_Index>
5

> <From>
www.bindingDB.org

> <BindingDB Reactant_set_id>
50007203

> <Ligand InChI>
InChI=1S/C19H16N4O2/c1-24-16-8-14-15(9-17(16)25-2)21-11-22-19(14)23-18-7-12-5-3-4-6-13(12)10-20-18/h3-11H,1-2H3,(H,20,21,22,23)

> <Ligand InChI Key>
TWVXDJSEKDRXKV-UHFFFAOYSA-N

> <BindingDB MonomerID>
50290634

> <BindingDB Ligand Name>
(6,7-Dimethoxy-quinazolin-4-yl)-isoquinolin-3-yl-amine::CHEMBL91428

> <Target Name Assigned by Curator or DataSource>
Epidermal growth factor receptor

> <Target Source Organism According to Curator or DataSource>
Homo sapiens

> <Ki (nM)>


> <IC50 (nM)>
810

> <Kd (nM)>


> <EC50 (nM)>


> <kon (M-1-s-1)>


> <koff (s-1)>


> <pH>


> <Temp C>


> <Curation/DataSource>
ChEMBL

> <Article DOI>
10.1016/S0960-894X(97)10059-2

> <PMID>


> <PubChem AID>


> <Patent Number>


> <Authors>
Gibson, KH; Grundy, W; Godfrey, AA; Woodburn, JR; Ashton, SE; Curry, BJ; Scarlett, L; Barker, AJ; Brown, DS

> <Institution>
TBA

> <Link to Ligand in BindingDB>
http://www.bindingdb.org/bind/chemsearch/marvin/MolStructure.jsp?monomerid=50290634

> <Link to Ligand-Target Pair in BindingDB>
http://www.bindingdb.org/jsp/dbsearch/PrimarySearch_ki.jsp?energyterm=kJ/mole&tag=r21&monomerid=50290634&enzyme=Epidermal+growth+factor+receptor&column=ki&startPg=0&Increment=50&submit=Search

> <Ligand HET ID in PDB>


> <PDB ID(s) for Ligand-Target Complex>


> <PubChem CID>
44324941

> <PubChem SID>
104132186

> <ChEBI ID of Ligand>


> <ChEMBL ID of Ligand>
CHEMBL91428

> <DrugBank ID of Ligand>


> <IUPHAR_GRAC ID of Ligand>


> <KEGG ID of Ligand>


> <ZINC ID of Ligand>
ZINC03815371

> <Number of Protein Chains in Target (>
1

> <BindingDB Target Chain Sequence>
MRPSGTAGAALLALLAALCPASRALEEKKVCQGTSNKLTQLGTFEDHFLSLQRMFNNCEVVLGNLEITYVQRNYDLSFLKTIQEVAGYVLIALNTVERIPLENLQIIRGNMYYENSYALAVLSNYDANKTGLKELPMRNLQEILHGAVRFSNNPALCNVESIQWRDIVSSDFLSNMSMDFQNHLGSCQKCDPSCPNGSCWGAGEENCQKLTKIICAQQCSGRCRGKSPSDCCHNQCAAGCTGPRESDCLVCRKFRDEATCKDTCPPLMLYNPTTYQMDVNPEGKYSFGATCVKKCPRNYVVTDHGSCVRACGADSYEMEEDGVRKCKKCEGPCRKVCNGIGIGEFKDSLSINATNIKHFKNCTSISGDLHILPVAFRGDSFTHTPPLDPQELDILKTVKEITGFLLIQAWPENRTDLHAFENLEIIRGRTKQHGQFSLAVVSLNITSLGLRSLKEISDGDVIISGNKNLCYANTINWKKLFGTSGQKTKIISNRGENSCKATGQVCHALCSPEGCWGPEPRDCVSCRNVSRGRECVDKCNLLEGEPREFVENSECIQCHPECLPQAMNITCTGRGPDNCIQCAHYIDGPHCVKTCPAGVMGENNTLVWKYADAGHVCHLCHPNCTYGCTGPGLEGCPTNGPKIPSIATGMVGALLLLLVVALGIGLFMRRRHIVRKRTLRRLLQERELVEPLTPSGEAPNQALLRILKETEFKKIKVLGSGAFGTVYKGLWIPEGEKVKIPVAIKELREATSPKANKEILDEAYVMASVDNPHVCRLLGICLTSTVQLITQLMPFGCLLDYVREHKDNIGSQYLLNWCVQIAKGMNYLEDRRLVHRDLAARNVLVKTPQHVKITDFGLAKLLGAEEKEYHAEGGKVPIKWMALESILHRIYTHQSDVWSYGVTVWELMTFGSKPYDGIPASEISSILEKGERLPQPPICTIDVYMIMVKCWMIDADSRPKFRELIIEFSKMARDPQRYLVIQGDERMHLPSPTDSNFYRALMDEEDMDDVVDADEYLIPQQGFFSSPSTSRTPLLSSLSATSNNSTVACIDRNGLQSCPIKEDSFLQRYSSDPTGALTEDSIDDTFLPVPEYINQSVPKRPAGSVQNPVYHNQPLNPAPSRDPHYQDPHSTAVGNPEYLNTVQPTCVNSTFDSPAHWAQKGSHQISLDNPDYQQDFFPKEAKPNGIFKGSTAENAEYLRVAPQSSEFIGA

> <PDB ID(s) of Target Chain>
1IVO,1M14,1M17,1MOX,1XKK,1Z9I,2GS2,2GS6,2ITW,2ITX,2ITY,2J5E,2J5F,2J6M,2RF9,2RGP,3B2V,3BEL,3GOP,3POZ,3QWQ,3VJO,3W2O,3W2P,3W2Q,3W2R,3W2S,3W32,3W33,4G5J,4I23,4JQ7,4JQ8,4JR3,4JRV,4KRO,4LI5,4RJ4,4RJ5,4RJ6,4RJ7,4RJ8,4TKS,4UIP,4UV7,4WKQ,4WRG,4ZAU,5C8K,5C8M,5C8N,5CAL,5CAN,5CAO,5CAP,5CAQ,5CAS,5CAU,5CAV,5EDP,5EDQ,5EDR,5EM5,5EM6,5EM7,5EM8,5FED,5GNK,5HCX,5HCY,5HCZ,5HIB,5HIC,5UGB,5WB7,5WB8,5Y25,6S89,6S8A

> <UniProt (SwissProt) Recommended Name of Target Chain>
Epidermal growth factor receptor

> <UniProt (SwissProt) Entry Name of Target Chain>
EGFR_HUMAN

> <UniProt (SwissProt) Primary ID of Target Chain>
P00533

> <UniProt (SwissProt) Secondary ID(s) of Target Chain>
O00688,O00732,P06268,Q14225,Q68GS5,Q92795,Q9BZS2,Q9GZX1,Q9H2C9,Q9H3C9,Q9UMD7,Q9UMD8,Q9UMG5

> <UniProt (SwissProt) Alternative ID(s) of Target Chain>


> <UniProt (TrEMBL) Submitted Name of Target Chain>


> <UniProt (TrEMBL) Entry Name of Target Chain>


> <UniProt (TrEMBL) Primary ID of Target Chain>


> <UniProt (TrEMBL) Secondary ID(s) of Target Chain>


> <UniProt (TrEMBL) Alternative ID(s) of Target Chain>


> <training label>
6.09151

> <i_lp_mmshare_version>
54117

> <s_epik_input>
W0NIM11PYyhbY0hdMSljKE9bQ0gzXSlbY0hdYyhjMTIpbltjSF1uYzJbTkhdYyhbY0hdMyluW2NIXWMoYzM0KVtjSF1bY0hdW2NIXVtjSF00

> <s_epik_cmdline>
J2VwaWtfcHl0aG9uJywgJy1waHQnLCAnMC4xJywgJy1waCcsICc3LjQnLCAnLXRuJywgJzgnLCAnLW1hJywgJzIwMCcsICctaW1hZScsICc8aW5maWxlLm1hZT4nLCAnLW9tYWUnLCAnPG91dGZpbGUubWFlPic=

> <r_lp_tautomer_probability>
0.999978000241998

> <r_epik_Ionization_Penalty>
  0.0525

> <r_epik_Ionization_Penalty_Charging>
  0.0000

> <r_epik_Ionization_Penalty_Neutral>
  0.0525

> <r_epik_State_Penalty>
  0.0443

> <r_epik_Charging_Adjusted_Penalty>
0.044317051046412

> <i_epik_Tot_Q>
0

> <i_epik_Tot_abs_Q>
0

> <i_f3d_flags>
0

> <s_lp_Force_Field>
OPLS_2005

> <r_lp_Energy>
22.958451

> <b_lp_Chiralities_Consistent>
1

> <s_lp_Variant>
BindingDB_50290634_mol_1-1

> <s_i_glide_gridfile>
struct_1_site_1

> <i_i_glide_lignum>
76

> <i_i_glide_rotatable_bonds>
4

> <r_i_docking_score>
-8.76278388867526

> <r_i_glide_ligand_efficiency>
-0.35051135554701

> <r_i_glide_ligand_efficiency_sa>
-1.02490141996482

> <r_i_glide_ligand_efficiency_ln>
-2.07704238105871

> <r_i_glide_gscore>
-8.80708388867526

> <r_i_glide_lipo>
-3.57509317533879

> <r_i_glide_hbond>
-0.32

> <r_i_glide_metal>
0

> <r_i_glide_rewards>
-2.31047692489456

> <r_i_glide_evdw>
-42.7397956848145

> <r_i_glide_ecoul>
-5.3701434135437

> <r_i_glide_erotb>
0.340997507830363

> <r_i_glide_esite>
0

> <r_i_glide_emodel>
-55.0376230565943

> <r_i_glide_energy>
-48.1099390983582

> <r_i_glide_einternal>
3.66460490226746

> <i_i_glide_confnum>
5

> <i_i_glide_posenum>
28

> <r_i_glide_eff_state_penalty>
0.0443

> <r_glide_shape_similarity>
0.83005154132843

> <s_m_subgroup_title>
505 training

> <s_m_subgroupid>
pocket_pv

> <b_m_subgroup_collapsed>
0

$$$$
BindingDB_50102075_mol_1
                    3D
 Schrodinger Suite 2021-2.
 56 58  0  0  1  0            999 V2000
   22.1030   -0.1435   53.4459 C   0  0  0  0  0  0
   23.4543   -0.1856   53.8928 C   0  0  0  0  0  0
   21.1777   -0.9906   54.1101 C   0  0  0  0  0  0
   21.6854    0.6783   52.3797 C   0  0  0  0  0  0
   23.8345   -1.0129   54.8873 N   0  0  0  0  0  0
   19.8172   -0.9471   53.7084 C   0  0  0  0  0  0
   24.4511    0.6441   53.3616 N   0  0  0  0  0  0
   20.3319    0.7232   51.9634 C   0  0  0  0  0  0
   19.3927   -0.1015   52.6333 C   0  0  0  0  0  0
   28.1138    1.1602   53.6966 C   0  0  0  0  0  0
   21.6010   -1.8089   55.1047 N   0  0  0  0  0  0
   26.7350    1.4421   53.6605 C   0  0  0  0  0  0
   22.8940   -1.7754   55.4306 C   0  0  0  0  0  0
   25.8241    0.4047   53.3572 C   0  0  0  0  0  0
   23.7947    4.5909   51.2890 C   0  0  0  0  0  0
   28.6043   -0.1397   53.4185 C   0  0  0  0  0  0
   27.6979   -1.1664   53.0927 C   0  0  0  0  0  0
   22.6104    4.2385   50.3973 N   0  3  0  0  0  0
   29.2033    2.4131   54.1578 Cl  0  0  0  0  0  0
   26.3192   -0.8875   53.0500 C   0  0  0  0  0  0
   29.9274   -0.4264   53.4658 F   0  0  0  0  0  0
   18.0827   -0.0091   52.1832 O   0  0  0  0  0  0
   19.8888    1.5565   50.9434 O   0  0  0  0  0  0
   24.8762    5.3900   50.4472 C   0  0  0  0  0  0
   23.3696    5.4981   52.5028 C   0  0  0  0  0  0
   26.0937    4.6871   50.1757 O   0  0  0  0  0  0
   24.2611    5.3819   53.6179 O   0  0  0  0  0  0
   24.3965    3.2724   51.8303 C   0  0  0  0  0  0
   21.4043    3.5650   51.0227 C   0  0  0  0  0  0
   20.8233    2.3620   50.1936 C   0  0  0  0  0  0
   17.0518   -0.7483   52.8302 C   0  0  0  0  0  0
   22.4286    1.2662   51.8575 H   0  0  0  0  0  0
   19.1182   -1.5714   54.2360 H   0  0  0  0  0  0
   24.1531    1.5725   53.1145 H   0  0  0  0  0  0
   26.3891    2.4283   53.9225 H   0  0  0  0  0  0
   23.2126   -2.4272   56.2310 H   0  0  0  0  0  0
   28.0615   -2.1646   52.8788 H   0  0  0  0  0  0
   22.2876    5.0941   49.9347 H   0  0  0  0  0  0
   25.6352   -1.6809   52.7989 H   0  0  0  0  0  0
   25.1831    6.3016   50.9749 H   0  0  0  0  0  0
   24.4646    5.7314   49.4906 H   0  0  0  0  0  0
   23.2966    6.5394   52.1738 H   0  0  0  0  0  0
   22.3844    5.2207   52.8842 H   0  0  0  0  0  0
   26.7320    4.9066   50.8633 H   0  0  0  0  0  0
   25.1968    5.5399   53.3745 H   0  0  0  0  0  0
   25.3703    3.4454   52.2817 H   0  0  0  0  0  0
   23.7408    2.9036   52.6065 H   0  0  0  0  0  0
   24.5168    2.5197   51.0499 H   0  0  0  0  0  0
   21.6621    3.1984   52.0158 H   0  0  0  0  0  0
   20.6266    4.3199   51.1735 H   0  0  0  0  0  0
   20.3027    2.7568   49.3146 H   0  0  0  0  0  0
   21.6271    1.7308   49.8072 H   0  0  0  0  0  0
   16.1001   -0.5437   52.3341 H   0  0  0  0  0  0
   17.2263   -1.8247   52.7657 H   0  0  0  0  0  0
   16.9519   -0.4654   53.8764 H   0  0  0  0  0  0
   22.9808    3.6296   49.6680 H   0  0  0  0  0  0
  1  2  2  0  0  0
  1  3  1  0  0  0
  1  4  1  0  0  0
  2  5  1  0  0  0
  2  7  1  0  0  0
  3  6  1  0  0  0
  3 11  2  0  0  0
  4  8  2  0  0  0
  4 32  1  0  0  0
  5 13  2  0  0  0
  6  9  2  0  0  0
  6 33  1  0  0  0
  7 14  1  0  0  0
  7 34  1  0  0  0
  8  9  1  0  0  0
  8 23  1  0  0  0
  9 22  1  0  0  0
 10 12  2  0  0  0
 10 16  1  0  0  0
 10 19  1  0  0  0
 11 13  1  0  0  0
 12 14  1  0  0  0
 12 35  1  0  0  0
 13 36  1  0  0  0
 14 20  2  0  0  0
 15 18  1  0  0  0
 15 24  1  0  0  0
 15 25  1  0  0  0
 15 28  1  0  0  0
 16 17  2  0  0  0
 16 21  1  0  0  0
 17 20  1  0  0  0
 17 37  1  0  0  0
 18 29  1  0  0  0
 18 38  1  0  0  0
 18 56  1  0  0  0
 20 39  1  0  0  0
 22 31  1  0  0  0
 23 30  1  0  0  0
 24 26  1  0  0  0
 24 40  1  0  0  0
 24 41  1  0  0  0
 25 27  1  0  0  0
 25 42  1  0  0  0
 25 43  1  0  0  0
 26 44  1  0  0  0
 27 45  1  0  0  0
 28 46  1  0  0  0
 28 47  1  0  0  0
 28 48  1  0  0  0
 29 30  1  0  0  0
 29 49  1  0  0  0
 29 50  1  0  0  0
 30 51  1  0  0  0
 30 52  1  0  0  0
 31 53  1  0  0  0
 31 54  1  0  0  0
 31 55  1  0  0  0
M  CHG  1  18   1
M  END
> <s_m_entry_id>
195

> <s_m_entry_name>
pocket_pv.6

> <s_m_Source_Path>
/home/bortolaa/Project/GT/mario-master/docking/set505protein_struct_1_site_1_set505ligs_train

> <s_m_Source_File>
pocket_pv.maegz

> <i_m_Source_File_Index>
6

> <From>
www.bindingDB.org

> <BindingDB Reactant_set_id>
50733024

> <Ligand InChI>
InChI=1S/C21H24ClFN4O4/c1-21(10-28,11-29)26-5-6-31-19-8-14-17(9-18(19)30-2)24-12-25-20(14)27-13-3-4-16(23)15(22)7-13/h3-4,7-9,12,26,28-29H,5-6,10-11H2,1-2H3,(H,24,25,27)

> <Ligand InChI Key>
YVOYJUFXYUNMMY-UHFFFAOYSA-N

> <BindingDB MonomerID>
50102075

> <BindingDB Ligand Name>
2-{2-[4-(3-Chloro-4-fluoro-phenylamino)-7-methoxy-quinazolin-6-yloxy]-ethylamino}-2-methyl-propane-1,3-diol::CHEMBL56027

> <Target Name Assigned by Curator or DataSource>
Epidermal growth factor receptor

> <Target Source Organism According to Curator or DataSource>
Homo sapiens

> <Ki (nM)>


> <Kd (nM)>


> <EC50 (nM)>


> <kon (M-1-s-1)>


> <koff (s-1)>


> <pH>


> <Temp C>


> <Curation/DataSource>
ChEMBL

> <Article DOI>
10.1016/s0960-894x(01)00344-4

> <PubChem AID>


> <Patent Number>


> <Authors>
Barker, AJ; Gibson, KH; Grundy, W; Godfrey, AA; Barlow, JJ; Healy, MP; Woodburn, JR; Ashton, SE; Curry, BJ; Scarlett, L; Henthorn, L; Richards, L

> <Institution>
AstraZeneca

> <Link to Ligand in BindingDB>
http://www.bindingdb.org/bind/chemsearch/marvin/MolStructure.jsp?monomerid=50102075

> <Link to Ligand-Target Pair in BindingDB>
http://www.bindingdb.org/jsp/dbsearch/PrimarySearch_ki.jsp?energyterm=kJ/mole&tag=r21&monomerid=50102075&enzyme=Epidermal+growth+factor+receptor&column=ki&startPg=0&Increment=50&submit=Search

> <Ligand HET ID in PDB>


> <PDB ID(s) for Ligand-Target Complex>


> <PubChem CID>
44299755

> <PubChem SID>
103998632

> <ChEBI ID of Ligand>


> <ChEMBL ID of Ligand>
CHEMBL56027

> <DrugBank ID of Ligand>


> <IUPHAR_GRAC ID of Ligand>


> <KEGG ID of Ligand>


> <ZINC ID of Ligand>
ZINC29551999

> <Number of Protein Chains in Target (>
1

> <BindingDB Target Chain Sequence>
MRPSGTAGAALLALLAALCPASRALEEKKVCQGTSNKLTQLGTFEDHFLSLQRMFNNCEVVLGNLEITYVQRNYDLSFLKTIQEVAGYVLIALNTVERIPLENLQIIRGNMYYENSYALAVLSNYDANKTGLKELPMRNLQEILHGAVRFSNNPALCNVESIQWRDIVSSDFLSNMSMDFQNHLGSCQKCDPSCPNGSCWGAGEENCQKLTKIICAQQCSGRCRGKSPSDCCHNQCAAGCTGPRESDCLVCRKFRDEATCKDTCPPLMLYNPTTYQMDVNPEGKYSFGATCVKKCPRNYVVTDHGSCVRACGADSYEMEEDGVRKCKKCEGPCRKVCNGIGIGEFKDSLSINATNIKHFKNCTSISGDLHILPVAFRGDSFTHTPPLDPQELDILKTVKEITGFLLIQAWPENRTDLHAFENLEIIRGRTKQHGQFSLAVVSLNITSLGLRSLKEISDGDVIISGNKNLCYANTINWKKLFGTSGQKTKIISNRGENSCKATGQVCHALCSPEGCWGPEPRDCVSCRNVSRGRECVDKCNLLEGEPREFVENSECIQCHPECLPQAMNITCTGRGPDNCIQCAHYIDGPHCVKTCPAGVMGENNTLVWKYADAGHVCHLCHPNCTYGCTGPGLEGCPTNGPKIPSIATGMVGALLLLLVVALGIGLFMRRRHIVRKRTLRRLLQERELVEPLTPSGEAPNQALLRILKETEFKKIKVLGSGAFGTVYKGLWIPEGEKVKIPVAIKELREATSPKANKEILDEAYVMASVDNPHVCRLLGICLTSTVQLITQLMPFGCLLDYVREHKDNIGSQYLLNWCVQIAKGMNYLEDRRLVHRDLAARNVLVKTPQHVKITDFGLAKLLGAEEKEYHAEGGKVPIKWMALESILHRIYTHQSDVWSYGVTVWELMTFGSKPYDGIPASEISSILEKGERLPQPPICTIDVYMIMVKCWMIDADSRPKFRELIIEFSKMARDPQRYLVIQGDERMHLPSPTDSNFYRALMDEEDMDDVVDADEYLIPQQGFFSSPSTSRTPLLSSLSATSNNSTVACIDRNGLQSCPIKEDSFLQRYSSDPTGALTEDSIDDTFLPVPEYINQSVPKRPAGSVQNPVYHNQPLNPAPSRDPHYQDPHSTAVGNPEYLNTVQPTCVNSTFDSPAHWAQKGSHQISLDNPDYQQDFFPKEAKPNGIFKGSTAENAEYLRVAPQSSEFIGA

> <PDB ID(s) of Target Chain>
1IVO,1M14,1M17,1MOX,1XKK,1Z9I,2GS2,2GS6,2ITW,2ITX,2ITY,2J5E,2J5F,2J6M,2RF9,2RGP,3B2V,3BEL,3GOP,3POZ,3QWQ,3VJO,3W2O,3W2P,3W2Q,3W2R,3W2S,3W32,3W33,4G5J,4I23,4JQ7,4JQ8,4JR3,4JRV,4KRO,4LI5,4RJ4,4RJ5,4RJ6,4RJ7,4RJ8,4TKS,4UIP,4UV7,4WKQ,4WRG,4ZAU,5C8K,5C8M,5C8N,5CAL,5CAN,5CAO,5CAP,5CAQ,5CAS,5CAU,5CAV,5EDP,5EDQ,5EDR,5EM5,5EM6,5EM7,5EM8,5FED,5GNK,5HCX,5HCY,5HCZ,5HIB,5HIC,5UGB,5WB7,5WB8,5Y25,6S89,6S8A

> <UniProt (SwissProt) Recommended Name of Target Chain>
Epidermal growth factor receptor

> <UniProt (SwissProt) Entry Name of Target Chain>
EGFR_HUMAN

> <UniProt (SwissProt) Primary ID of Target Chain>
P00533

> <UniProt (SwissProt) Secondary ID(s) of Target Chain>
O00688,O00732,P06268,Q14225,Q68GS5,Q92795,Q9BZS2,Q9GZX1,Q9H2C9,Q9H3C9,Q9UMD7,Q9UMD8,Q9UMG5

> <UniProt (SwissProt) Alternative ID(s) of Target Chain>


> <UniProt (TrEMBL) Submitted Name of Target Chain>


> <UniProt (TrEMBL) Entry Name of Target Chain>


> <UniProt (TrEMBL) Primary ID of Target Chain>


> <UniProt (TrEMBL) Secondary ID(s) of Target Chain>


> <UniProt (TrEMBL) Alternative ID(s) of Target Chain>


> <training label>
7.16115

> <i_lp_mmshare_version>
54117

> <s_epik_input>
W09IXVtDSDJdQyhbQ0gzXSkoW0NIMl1bT0hdKVtOSF1bQ0gyXVtDSDJdT2MoW2NIXTEpYyhPW0NIM10pW2NIXWMoYzEyKW5bY0hdbmMyW05IXWMoW2NIXWMzQ2wpW2NIXVtjSF1jM0Y=

> <s_epik_cmdline>
J2VwaWtfcHl0aG9uJywgJy1waHQnLCAnMC4xJywgJy1waCcsICc3LjQnLCAnLXRuJywgJzgnLCAnLW1hJywgJzIwMCcsICctaW1hZScsICc8aW5maWxlLm1hZT4nLCAnLW9tYWUnLCAnPG91dGZpbGUubWFlPic=

> <r_lp_tautomer_probability>
0.999978000241998

> <r_epik_Ionization_Penalty>
  0.3479

> <r_epik_Ionization_Penalty_Charging>
  0.3475

> <r_epik_Ionization_Penalty_Neutral>
  0.0004

> <r_epik_State_Penalty>
  0.3436

> <r_epik_Charging_Adjusted_Penalty>
0.691098092961193

> <i_epik_Tot_Q>
1

> <i_epik_Tot_abs_Q>
1

> <i_f3d_flags>
0

> <s_lp_Force_Field>
OPLS_2005

> <r_lp_Energy>
31.547976

> <b_lp_Chiralities_Consistent>
1

> <s_lp_Variant>
BindingDB_50102075_mol_1-1

> <s_i_glide_gridfile>
struct_1_site_1

> <i_i_glide_lignum>
176

> <i_i_glide_rotatable_bonds>
12

> <r_i_docking_score>
-8.67884631506854

> <r_i_glide_ligand_efficiency>
-0.27996278435705

> <r_i_glide_ligand_efficiency_sa>
-0.879469673162164

> <r_i_glide_ligand_efficiency_ln>
-1.95734581874516

> <r_i_glide_gscore>
-9.02244631506854

> <r_i_glide_lipo>
-3.19417830067971

> <r_i_glide_hbond>
-0.549243381552376

> <r_i_glide_metal>
0

> <r_i_glide_rewards>
-1.8605958149159

> <r_i_glide_evdw>
-41.0424613952637

> <r_i_glide_ecoul>
-14.9850826263428

> <r_i_glide_erotb>
0.884113710508994

> <r_i_glide_esite>
-0.00265706471494499

> <r_i_glide_emodel>
-61.9572328708919

> <r_i_glide_energy>
-56.0275440216064

> <r_i_glide_einternal>
11.9352521896362

> <i_i_glide_confnum>
373

> <i_i_glide_posenum>
146

> <r_i_glide_eff_state_penalty>
0.3436

> <IC50 (nM)>
69

> <PMID>
11459659

> <r_glide_shape_similarity>
0.692754209041595

> <s_m_subgroup_title>
505 training

> <s_m_subgroupid>
pocket_pv

> <b_m_subgroup_collapsed>
0

$$$$
BindingDB_50307782_mol_1
                    3D
 Schrodinger Suite 2021-2.
 63 65  0  0  1  0            999 V2000
   20.1231    0.5288   52.1442 C   0  0  0  0  0  0
   19.3254   -0.4020   52.8418 C   0  0  0  0  0  0
   19.9022   -1.2190   53.8479 C   0  0  0  0  0  0
   21.4964    0.6598   52.4894 C   0  0  0  0  0  0
   22.0669   -0.1619   53.4987 C   0  0  0  0  0  0
   21.2677   -1.1165   54.1857 C   0  0  0  0  0  0
   21.8019   -1.9035   55.1470 N   0  0  0  0  0  0
   23.0999   -1.7468   55.4171 C   0  0  0  0  0  0
   23.9410   -0.8986   54.8285 N   0  0  0  0  0  0
   23.4355   -0.0940   53.8676 C   0  0  0  0  0  0
   19.4617    1.2521   51.1615 O   0  0  0  0  0  0
   24.2873    0.8553   53.2740 N   0  0  0  0  0  0
   25.6835    0.9490   53.3411 C   0  0  0  0  0  0
   26.5093   -0.2016   53.3254 C   0  0  0  0  0  0
   27.9111   -0.0741   53.3828 C   0  0  0  0  0  0
   28.4917    1.2098   53.4626 C   0  0  0  0  0  0
   27.6789    2.3626   53.4317 C   0  0  0  0  0  0
   26.2772    2.2322   53.3683 C   0  0  0  0  0  0
   20.1667    2.1742   50.3443 C   0  0  0  0  0  0
   21.0055    1.4406   49.2750 C   0  0  0  0  0  0
   22.1005    2.3161   48.6177 C   0  0  0  0  0  0
   23.1459    2.8611   49.6302 C   0  0  0  0  0  0
   24.3827    3.5281   48.9769 C   0  0  0  0  0  0
   28.9084   -1.4885   53.3743 Cl  0  0  0  0  0  0
   25.1502    4.5043   49.9163 C   0  0  0  0  0  0
   29.8331    1.3252   53.5857 F   0  0  0  0  0  0
   24.3840    5.8171   50.2009 C   0  0  0  0  0  0
   24.6885    6.4774   51.3376 N   0  0  0  0  0  0
   23.5595    6.2392   49.3786 O   0  0  0  0  0  0
   24.2885    7.8448   51.3744 O   0  0  0  0  0  0
   17.9992   -0.4480   52.4580 O   0  0  0  0  0  0
   17.0943   -1.2736   53.1704 C   0  0  0  0  0  0
   15.6752   -1.0168   52.6356 C   0  0  0  0  0  0
   15.1980    0.2028   53.1800 O   0  0  0  0  0  0
   13.7949    0.3400   53.0436 C   0  0  0  0  0  0
   19.3014   -1.9389   54.3803 H   0  0  0  0  0  0
   22.1108    1.3798   51.9729 H   0  0  0  0  0  0
   23.5217   -2.3898   56.1758 H   0  0  0  0  0  0
   23.8182    1.6329   52.8344 H   0  0  0  0  0  0
   26.0777   -1.1913   53.2791 H   0  0  0  0  0  0
   28.1263    3.3453   53.4802 H   0  0  0  0  0  0
   25.6652    3.1208   53.3624 H   0  0  0  0  0  0
   20.7533    2.8384   50.9779 H   0  0  0  0  0  0
   19.4366    2.8131   49.8491 H   0  0  0  0  0  0
   20.3381    1.0466   48.5080 H   0  0  0  0  0  0
   21.4909    0.5689   49.7122 H   0  0  0  0  0  0
   21.6320    3.1444   48.0827 H   0  0  0  0  0  0
   22.6128    1.7215   47.8596 H   0  0  0  0  0  0
   23.4840    2.0554   50.2832 H   0  0  0  0  0  0
   22.6617    3.5925   50.2757 H   0  0  0  0  0  0
   24.0643    4.0768   48.0897 H   0  0  0  0  0  0
   25.0602    2.7541   48.6106 H   0  0  0  0  0  0
   26.1039    4.7748   49.4590 H   0  0  0  0  0  0
   25.3858    4.0108   50.8605 H   0  0  0  0  0  0
   25.4491    6.2933   52.0020 H   0  0  0  0  0  0
   24.5934    8.1445   52.2282 H   0  0  0  0  0  0
   17.3677   -2.3165   53.0103 H   0  0  0  0  0  0
   17.1307   -1.0739   54.2430 H   0  0  0  0  0  0
   15.6574   -0.9979   51.5440 H   0  0  0  0  0  0
   15.0407   -1.8437   52.9608 H   0  0  0  0  0  0
   13.4850    1.3014   53.4464 H   0  0  0  0  0  0
   13.4875    0.2994   51.9975 H   0  0  0  0  0  0
   13.2683   -0.4369   53.5969 H   0  0  0  0  0  0
  1  2  2  0  0  0
  1  4  1  0  0  0
  1 11  1  0  0  0
  2  3  1  0  0  0
  2 31  1  0  0  0
  3  6  2  0  0  0
  3 36  1  0  0  0
  4  5  2  0  0  0
  4 37  1  0  0  0
  5  6  1  0  0  0
  5 10  1  0  0  0
  6  7  1  0  0  0
  7  8  2  0  0  0
  8  9  1  0  0  0
  8 38  1  0  0  0
  9 10  2  0  0  0
 10 12  1  0  0  0
 11 19  1  0  0  0
 12 13  1  0  0  0
 12 39  1  0  0  0
 13 14  1  0  0  0
 13 18  2  0  0  0
 14 15  2  0  0  0
 14 40  1  0  0  0
 15 16  1  0  0  0
 15 24  1  0  0  0
 16 17  2  0  0  0
 16 26  1  0  0  0
 17 18  1  0  0  0
 17 41  1  0  0  0
 18 42  1  0  0  0
 19 20  1  0  0  0
 19 43  1  0  0  0
 19 44  1  0  0  0
 20 21  1  0  0  0
 20 45  1  0  0  0
 20 46  1  0  0  0
 21 22  1  0  0  0
 21 47  1  0  0  0
 21 48  1  0  0  0
 22 23  1  0  0  0
 22 49  1  0  0  0
 22 50  1  0  0  0
 23 25  1  0  0  0
 23 51  1  0  0  0
 23 52  1  0  0  0
 25 27  1  0  0  0
 25 53  1  0  0  0
 25 54  1  0  0  0
 27 28  1  0  0  0
 27 29  2  0  0  0
 28 30  1  0  0  0
 28 55  1  0  0  0
 30 56  1  0  0  0
 31 32  1  0  0  0
 32 33  1  0  0  0
 32 57  1  0  0  0
 32 58  1  0  0  0
 33 34  1  0  0  0
 33 59  1  0  0  0
 33 60  1  0  0  0
 34 35  1  0  0  0
 35 61  1  0  0  0
 35 62  1  0  0  0
 35 63  1  0  0  0
M  END
> <s_m_entry_id>
196

> <s_m_entry_name>
pocket_pv.7

> <s_m_Source_Path>
/home/bortolaa/Project/GT/mario-master/docking/set505protein_struct_1_site_1_set505ligs_train

> <s_m_Source_File>
pocket_pv.maegz

> <i_m_Source_File_Index>
7

> <From>
www.bindingDB.org

> <BindingDB Reactant_set_id>
50552121

> <Ligand InChI>
InChI=1S/C24H28ClFN4O5/c1-33-10-11-35-22-14-20-17(13-21(22)34-9-5-3-2-4-6-23(31)30-32)24(28-15-27-20)29-16-7-8-19(26)18(25)12-16/h7-8,12-15,32H,2-6,9-11H2,1H3,(H,30,31)(H,27,28,29)

> <Ligand InChI Key>
FEOPLVISXFSHGK-UHFFFAOYSA-N

> <BindingDB MonomerID>
50307782

> <BindingDB Ligand Name>
7-(4-(3-Chloro-4-fluorophenylamino)-7-(2-methoxyethoxy)quinazolin-6-yloxy)-N-hydroxyheptanamide::CHEMBL597569

> <Target Name Assigned by Curator or DataSource>
Epidermal growth factor receptor

> <Target Source Organism According to Curator or DataSource>
Homo sapiens

> <Ki (nM)>


> <Kd (nM)>


> <EC50 (nM)>


> <kon (M-1-s-1)>


> <koff (s-1)>


> <pH>


> <Temp C>


> <Curation/DataSource>
ChEMBL

> <Article DOI>
10.1021/jm901453q

> <PubChem AID>


> <Patent Number>


> <Authors>
Cai, X; Zhai, HX; Wang, J; Forrester, J; Qu, H; Yin, L; Lai, CJ; Bao, R; Qian, C

> <Institution>
Curis Inc

> <Link to Ligand in BindingDB>
http://www.bindingdb.org/bind/chemsearch/marvin/MolStructure.jsp?monomerid=50307782

> <Link to Ligand-Target Pair in BindingDB>
http://www.bindingdb.org/jsp/dbsearch/PrimarySearch_ki.jsp?energyterm=kJ/mole&tag=r21&monomerid=50307782&enzyme=Epidermal+growth+factor+receptor&column=ki&startPg=0&Increment=50&submit=Search

> <Ligand HET ID in PDB>


> <PDB ID(s) for Ligand-Target Complex>


> <PubChem CID>
24945204

> <PubChem SID>
104162143

> <ChEBI ID of Ligand>


> <ChEMBL ID of Ligand>
CHEMBL597569

> <DrugBank ID of Ligand>


> <IUPHAR_GRAC ID of Ligand>


> <KEGG ID of Ligand>


> <ZINC ID of Ligand>
ZINC45356850

> <Number of Protein Chains in Target (>
1

> <BindingDB Target Chain Sequence>
MRPSGTAGAALLALLAALCPASRALEEKKVCQGTSNKLTQLGTFEDHFLSLQRMFNNCEVVLGNLEITYVQRNYDLSFLKTIQEVAGYVLIALNTVERIPLENLQIIRGNMYYENSYALAVLSNYDANKTGLKELPMRNLQEILHGAVRFSNNPALCNVESIQWRDIVSSDFLSNMSMDFQNHLGSCQKCDPSCPNGSCWGAGEENCQKLTKIICAQQCSGRCRGKSPSDCCHNQCAAGCTGPRESDCLVCRKFRDEATCKDTCPPLMLYNPTTYQMDVNPEGKYSFGATCVKKCPRNYVVTDHGSCVRACGADSYEMEEDGVRKCKKCEGPCRKVCNGIGIGEFKDSLSINATNIKHFKNCTSISGDLHILPVAFRGDSFTHTPPLDPQELDILKTVKEITGFLLIQAWPENRTDLHAFENLEIIRGRTKQHGQFSLAVVSLNITSLGLRSLKEISDGDVIISGNKNLCYANTINWKKLFGTSGQKTKIISNRGENSCKATGQVCHALCSPEGCWGPEPRDCVSCRNVSRGRECVDKCNLLEGEPREFVENSECIQCHPECLPQAMNITCTGRGPDNCIQCAHYIDGPHCVKTCPAGVMGENNTLVWKYADAGHVCHLCHPNCTYGCTGPGLEGCPTNGPKIPSIATGMVGALLLLLVVALGIGLFMRRRHIVRKRTLRRLLQERELVEPLTPSGEAPNQALLRILKETEFKKIKVLGSGAFGTVYKGLWIPEGEKVKIPVAIKELREATSPKANKEILDEAYVMASVDNPHVCRLLGICLTSTVQLITQLMPFGCLLDYVREHKDNIGSQYLLNWCVQIAKGMNYLEDRRLVHRDLAARNVLVKTPQHVKITDFGLAKLLGAEEKEYHAEGGKVPIKWMALESILHRIYTHQSDVWSYGVTVWELMTFGSKPYDGIPASEISSILEKGERLPQPPICTIDVYMIMVKCWMIDADSRPKFRELIIEFSKMARDPQRYLVIQGDERMHLPSPTDSNFYRALMDEEDMDDVVDADEYLIPQQGFFSSPSTSRTPLLSSLSATSNNSTVACIDRNGLQSCPIKEDSFLQRYSSDPTGALTEDSIDDTFLPVPEYINQSVPKRPAGSVQNPVYHNQPLNPAPSRDPHYQDPHSTAVGNPEYLNTVQPTCVNSTFDSPAHWAQKGSHQISLDNPDYQQDFFPKEAKPNGIFKGSTAENAEYLRVAPQSSEFIGA

> <PDB ID(s) of Target Chain>
1IVO,1M14,1M17,1MOX,1XKK,1Z9I,2GS2,2GS6,2ITW,2ITX,2ITY,2J5E,2J5F,2J6M,2RF9,2RGP,3B2V,3BEL,3GOP,3POZ,3QWQ,3VJO,3W2O,3W2P,3W2Q,3W2R,3W2S,3W32,3W33,4G5J,4I23,4JQ7,4JQ8,4JR3,4JRV,4KRO,4LI5,4RJ4,4RJ5,4RJ6,4RJ7,4RJ8,4TKS,4UIP,4UV7,4WKQ,4WRG,4ZAU,5C8K,5C8M,5C8N,5CAL,5CAN,5CAO,5CAP,5CAQ,5CAS,5CAU,5CAV,5EDP,5EDQ,5EDR,5EM5,5EM6,5EM7,5EM8,5FED,5GNK,5HCX,5HCY,5HCZ,5HIB,5HIC,5UGB,5WB7,5WB8,5Y25,6S89,6S8A

> <UniProt (SwissProt) Recommended Name of Target Chain>
Epidermal growth factor receptor

> <UniProt (SwissProt) Entry Name of Target Chain>
EGFR_HUMAN

> <UniProt (SwissProt) Primary ID of Target Chain>
P00533

> <UniProt (SwissProt) Secondary ID(s) of Target Chain>
O00688,O00732,P06268,Q14225,Q68GS5,Q92795,Q9BZS2,Q9GZX1,Q9H2C9,Q9H3C9,Q9UMD7,Q9UMD8,Q9UMG5

> <UniProt (SwissProt) Alternative ID(s) of Target Chain>


> <UniProt (TrEMBL) Submitted Name of Target Chain>


> <UniProt (TrEMBL) Entry Name of Target Chain>


> <UniProt (TrEMBL) Primary ID of Target Chain>


> <UniProt (TrEMBL) Secondary ID(s) of Target Chain>


> <UniProt (TrEMBL) Alternative ID(s) of Target Chain>


> <training label>
8

> <i_lp_mmshare_version>
54117

> <s_epik_input>
W09IXVtOSF1DKD1PKVtDSDJdW0NIMl1bQ0gyXVtDSDJdW0NIMl1bQ0gyXU9jKFtjSF0xKWMoT1tDSDJdW0NIMl1PW0NIM10pW2NIXWMoYzEyKW5bY0hdbmMyW05IXWMzW2NIXWMoQ2wpYyhGKVtjSF1bY0hdMw==

> <s_epik_cmdline>
J2VwaWtfcHl0aG9uJywgJy1waHQnLCAnMC4xJywgJy1waCcsICc3LjQnLCAnLXRuJywgJzgnLCAnLW1hJywgJzIwMCcsICctaW1hZScsICc8aW5maWxlLm1hZT4nLCAnLW9tYWUnLCAnPG91dGZpbGUubWFlPic=

> <r_lp_tautomer_probability>
1

> <r_epik_Ionization_Penalty>
  0.0094

> <r_epik_Ionization_Penalty_Charging>
  0.0000

> <r_epik_Ionization_Penalty_Neutral>
  0.0094

> <r_epik_State_Penalty>
  0.0000

> <r_epik_Charging_Adjusted_Penalty>
0

> <i_epik_Tot_Q>
0

> <i_epik_Tot_abs_Q>
0

> <i_f3d_flags>
0

> <s_lp_Force_Field>
OPLS_2005

> <r_lp_Energy>
25.530755

> <b_lp_Chiralities_Consistent>
1

> <s_lp_Variant>
BindingDB_50307782_mol_1-1

> <s_i_glide_gridfile>
struct_1_site_1

> <i_i_glide_lignum>
234

> <i_i_glide_rotatable_bonds>
16

> <r_i_docking_score>
-8.59102435836877

> <r_i_glide_ligand_efficiency>
-0.245457838810536

> <r_i_glide_ligand_efficiency_sa>
-0.802908866153307

> <r_i_glide_ligand_efficiency_ln>
-1.88592051417469

> <r_i_glide_gscore>
-8.59102435836877

> <r_i_glide_lipo>
-3.40701653517749

> <r_i_glide_hbond>
-0.432

> <r_i_glide_metal>
0

> <r_i_glide_rewards>
-1.14884332020709

> <r_i_glide_evdw>
-50.4124298095703

> <r_i_glide_ecoul>
-13.2753953933716

> <r_i_glide_erotb>
1.11473016098945

> <r_i_glide_esite>
-0.20596386448939

> <r_i_glide_emodel>
-71.079183736876

> <r_i_glide_energy>
-63.6878252029419

> <r_i_glide_einternal>
8.3916711807251

> <i_i_glide_confnum>
509

> <i_i_glide_posenum>
367

> <r_i_glide_eff_state_penalty>
0

> <IC50 (nM)>
10

> <PMID>
20143778

> <s_epik_Chemistry_Notes>
This compound has a N-S or N-O group and may undergo hydrolysis at high or low pH.

> <r_glide_shape_similarity>
0.754498660564423

> <s_m_subgroup_title>
505 training

> <s_m_subgroupid>
pocket_pv

> <b_m_subgroup_collapsed>
0

$$$$
BindingDB_50307776_mol_1
                    3D
 Schrodinger Suite 2021-2.
 58 60  0  0  1  0            999 V2000
   20.1560    0.5267   52.1405 C   0  0  0  0  0  0
   19.3254   -0.3864   52.8335 C   0  0  0  0  0  0
   19.8974   -1.2123   53.8406 C   0  0  0  0  0  0
   21.5166    0.6477   52.4943 C   0  0  0  0  0  0
   22.0734   -0.1710   53.5023 C   0  0  0  0  0  0
   21.2658   -1.1194   54.1837 C   0  0  0  0  0  0
   21.8012   -1.9063   55.1453 N   0  0  0  0  0  0
   23.0984   -1.7497   55.4168 C   0  0  0  0  0  0
   23.9431   -0.9045   54.8303 N   0  0  0  0  0  0
   23.4395   -0.0980   53.8698 C   0  0  0  0  0  0
   19.6002    1.3168   51.1598 O   0  0  0  0  0  0
   17.9912   -0.4042   52.4625 O   0  0  0  0  0  0
   17.0701   -1.1504   53.2449 C   0  0  0  0  0  0
   24.2861    0.8535   53.2740 N   0  0  0  0  0  0
   25.6818    0.9514   53.3402 C   0  0  0  0  0  0
   26.5087   -0.1948   53.3284 C   0  0  0  0  0  0
   27.9099   -0.0609   53.3842 C   0  0  0  0  0  0
   28.4929    1.2221   53.4596 C   0  0  0  0  0  0
   27.6745    2.3689   53.4311 C   0  0  0  0  0  0
   26.2738    2.2330   53.3688 C   0  0  0  0  0  0
   20.2826    1.3556   49.9073 C   0  0  0  0  0  0
   19.4458    2.1977   48.9208 C   0  0  0  0  0  0
   19.8708    3.6758   48.8877 C   0  0  0  0  0  0
   19.7031    4.4279   50.2345 C   0  0  0  0  0  0
   20.5301    5.7426   50.3487 C   0  0  0  0  0  0
   22.0850    5.6104   50.3417 C   0  0  0  0  0  0
   22.7164    4.9668   51.6021 C   0  0  0  0  0  0
   23.8889    5.4955   52.0129 N   0  0  0  0  0  0
   22.1622    4.0228   52.1792 O   0  0  0  0  0  0
   24.2888    5.1980   53.3439 O   0  0  0  0  0  0
   28.7363   -1.2569   53.3719 C   0  0  0  0  0  0
   29.3732   -2.2983   53.3647 C   0  0  0  0  0  0
   29.8341    1.3484   53.5858 F   0  0  0  0  0  0
   19.2901   -1.9204   54.3825 H   0  0  0  0  0  0
   22.1266    1.3760   51.9837 H   0  0  0  0  0  0
   23.5127   -2.3997   56.1716 H   0  0  0  0  0  0
   16.0563   -0.9625   52.8919 H   0  0  0  0  0  0
   17.2609   -2.2205   53.1590 H   0  0  0  0  0  0
   17.1131   -0.8669   54.2970 H   0  0  0  0  0  0
   23.8166    1.6367   52.8404 H   0  0  0  0  0  0
   26.0700   -1.1804   53.2705 H   0  0  0  0  0  0
   28.1165    3.3539   53.4797 H   0  0  0  0  0  0
   25.6610    3.1195   53.3600 H   0  0  0  0  0  0
   21.2911    1.7614   49.9934 H   0  0  0  0  0  0
   20.3796    0.3394   49.5277 H   0  0  0  0  0  0
   19.5848    1.7944   47.9168 H   0  0  0  0  0  0
   18.3812    2.0991   49.1395 H   0  0  0  0  0  0
   20.9116    3.7082   48.5690 H   0  0  0  0  0  0
   19.3107    4.2009   48.1134 H   0  0  0  0  0  0
   18.6469    4.6616   50.3720 H   0  0  0  0  0  0
   19.9558    3.7812   51.0706 H   0  0  0  0  0  0
   20.2275    6.4132   49.5432 H   0  0  0  0  0  0
   20.2567    6.2526   51.2707 H   0  0  0  0  0  0
   22.4261    5.0578   49.4678 H   0  0  0  0  0  0
   22.5020    6.6124   50.2345 H   0  0  0  0  0  0
   24.3508    6.3381   51.6836 H   0  0  0  0  0  0
   25.2184    5.4911   53.3728 H   0  0  0  0  0  0
   29.8907   -3.2309   53.3699 H   0  0  0  0  0  0
  1  2  2  0  0  0
  1  4  1  0  0  0
  1 11  1  0  0  0
  2  3  1  0  0  0
  2 12  1  0  0  0
  3  6  2  0  0  0
  3 34  1  0  0  0
  4  5  2  0  0  0
  4 35  1  0  0  0
  5  6  1  0  0  0
  5 10  1  0  0  0
  6  7  1  0  0  0
  7  8  2  0  0  0
  8  9  1  0  0  0
  8 36  1  0  0  0
  9 10  2  0  0  0
 10 14  1  0  0  0
 11 21  1  0  0  0
 12 13  1  0  0  0
 13 37  1  0  0  0
 13 38  1  0  0  0
 13 39  1  0  0  0
 14 15  1  0  0  0
 14 40  1  0  0  0
 15 16  2  0  0  0
 15 20  1  0  0  0
 16 17  1  0  0  0
 16 41  1  0  0  0
 17 18  2  0  0  0
 17 31  1  0  0  0
 18 19  1  0  0  0
 18 33  1  0  0  0
 19 20  2  0  0  0
 19 42  1  0  0  0
 20 43  1  0  0  0
 21 22  1  0  0  0
 21 44  1  0  0  0
 21 45  1  0  0  0
 22 23  1  0  0  0
 22 46  1  0  0  0
 22 47  1  0  0  0
 23 24  1  0  0  0
 23 48  1  0  0  0
 23 49  1  0  0  0
 24 25  1  0  0  0
 24 50  1  0  0  0
 24 51  1  0  0  0
 25 26  1  0  0  0
 25 52  1  0  0  0
 25 53  1  0  0  0
 26 27  1  0  0  0
 26 54  1  0  0  0
 26 55  1  0  0  0
 27 28  1  0  0  0
 27 29  2  0  0  0
 28 30  1  0  0  0
 28 56  1  0  0  0
 30 57  1  0  0  0
 31 32  3  0  0  0
 32 58  1  0  0  0
M  END
> <s_m_entry_id>
197

> <s_m_entry_name>
pocket_pv.8

> <s_m_Source_Path>
/home/bortolaa/Project/GT/mario-master/docking/set505protein_struct_1_site_1_set505ligs_train

> <s_m_Source_File>
pocket_pv.maegz

> <i_m_Source_File_Index>
8

> <From>
www.bindingDB.org

> <BindingDB Reactant_set_id>
50552106

> <Ligand InChI>
InChI=1S/C24H25FN4O4/c1-3-16-12-17(9-10-19(16)25)28-24-18-13-22(21(32-2)14-20(18)26-15-27-24)33-11-7-5-4-6-8-23(30)29-31/h1,9-10,12-15,31H,4-8,11H2,2H3,(H,29,30)(H,26,27,28)

> <Ligand InChI Key>
ISCACOSJZYPVNU-UHFFFAOYSA-N

> <BindingDB MonomerID>
50307776

> <BindingDB Ligand Name>
7-(4-(3-Ethynyl-4-fluorophenylamino)-7-methoxyquinazolin-6-yloxy)-N-hydroxyheptanamide::CHEMBL598798

> <Target Name Assigned by Curator or DataSource>
Epidermal growth factor receptor

> <Target Source Organism According to Curator or DataSource>
Homo sapiens

> <Ki (nM)>


> <Kd (nM)>


> <EC50 (nM)>


> <kon (M-1-s-1)>


> <koff (s-1)>


> <pH>


> <Temp C>


> <Curation/DataSource>
ChEMBL

> <Article DOI>
10.1021/jm901453q

> <PubChem AID>


> <Patent Number>


> <Authors>
Cai, X; Zhai, HX; Wang, J; Forrester, J; Qu, H; Yin, L; Lai, CJ; Bao, R; Qian, C

> <Institution>
Curis Inc

> <Link to Ligand in BindingDB>
http://www.bindingdb.org/bind/chemsearch/marvin/MolStructure.jsp?monomerid=50307776

> <Link to Ligand-Target Pair in BindingDB>
http://www.bindingdb.org/jsp/dbsearch/PrimarySearch_ki.jsp?energyterm=kJ/mole&tag=r21&monomerid=50307776&enzyme=Epidermal+growth+factor+receptor&column=ki&startPg=0&Increment=50&submit=Search

> <Ligand HET ID in PDB>


> <PDB ID(s) for Ligand-Target Complex>


> <PubChem CID>
45140149

> <PubChem SID>
104162137

> <ChEBI ID of Ligand>


> <ChEMBL ID of Ligand>
CHEMBL598798

> <DrugBank ID of Ligand>


> <IUPHAR_GRAC ID of Ligand>


> <KEGG ID of Ligand>


> <ZINC ID of Ligand>
ZINC45355527

> <Number of Protein Chains in Target (>
1

> <BindingDB Target Chain Sequence>
MRPSGTAGAALLALLAALCPASRALEEKKVCQGTSNKLTQLGTFEDHFLSLQRMFNNCEVVLGNLEITYVQRNYDLSFLKTIQEVAGYVLIALNTVERIPLENLQIIRGNMYYENSYALAVLSNYDANKTGLKELPMRNLQEILHGAVRFSNNPALCNVESIQWRDIVSSDFLSNMSMDFQNHLGSCQKCDPSCPNGSCWGAGEENCQKLTKIICAQQCSGRCRGKSPSDCCHNQCAAGCTGPRESDCLVCRKFRDEATCKDTCPPLMLYNPTTYQMDVNPEGKYSFGATCVKKCPRNYVVTDHGSCVRACGADSYEMEEDGVRKCKKCEGPCRKVCNGIGIGEFKDSLSINATNIKHFKNCTSISGDLHILPVAFRGDSFTHTPPLDPQELDILKTVKEITGFLLIQAWPENRTDLHAFENLEIIRGRTKQHGQFSLAVVSLNITSLGLRSLKEISDGDVIISGNKNLCYANTINWKKLFGTSGQKTKIISNRGENSCKATGQVCHALCSPEGCWGPEPRDCVSCRNVSRGRECVDKCNLLEGEPREFVENSECIQCHPECLPQAMNITCTGRGPDNCIQCAHYIDGPHCVKTCPAGVMGENNTLVWKYADAGHVCHLCHPNCTYGCTGPGLEGCPTNGPKIPSIATGMVGALLLLLVVALGIGLFMRRRHIVRKRTLRRLLQERELVEPLTPSGEAPNQALLRILKETEFKKIKVLGSGAFGTVYKGLWIPEGEKVKIPVAIKELREATSPKANKEILDEAYVMASVDNPHVCRLLGICLTSTVQLITQLMPFGCLLDYVREHKDNIGSQYLLNWCVQIAKGMNYLEDRRLVHRDLAARNVLVKTPQHVKITDFGLAKLLGAEEKEYHAEGGKVPIKWMALESILHRIYTHQSDVWSYGVTVWELMTFGSKPYDGIPASEISSILEKGERLPQPPICTIDVYMIMVKCWMIDADSRPKFRELIIEFSKMARDPQRYLVIQGDERMHLPSPTDSNFYRALMDEEDMDDVVDADEYLIPQQGFFSSPSTSRTPLLSSLSATSNNSTVACIDRNGLQSCPIKEDSFLQRYSSDPTGALTEDSIDDTFLPVPEYINQSVPKRPAGSVQNPVYHNQPLNPAPSRDPHYQDPHSTAVGNPEYLNTVQPTCVNSTFDSPAHWAQKGSHQISLDNPDYQQDFFPKEAKPNGIFKGSTAENAEYLRVAPQSSEFIGA

> <PDB ID(s) of Target Chain>
1IVO,1M14,1M17,1MOX,1XKK,1Z9I,2GS2,2GS6,2ITW,2ITX,2ITY,2J5E,2J5F,2J6M,2RF9,2RGP,3B2V,3BEL,3GOP,3POZ,3QWQ,3VJO,3W2O,3W2P,3W2Q,3W2R,3W2S,3W32,3W33,4G5J,4I23,4JQ7,4JQ8,4JR3,4JRV,4KRO,4LI5,4RJ4,4RJ5,4RJ6,4RJ7,4RJ8,4TKS,4UIP,4UV7,4WKQ,4WRG,4ZAU,5C8K,5C8M,5C8N,5CAL,5CAN,5CAO,5CAP,5CAQ,5CAS,5CAU,5CAV,5EDP,5EDQ,5EDR,5EM5,5EM6,5EM7,5EM8,5FED,5GNK,5HCX,5HCY,5HCZ,5HIB,5HIC,5UGB,5WB7,5WB8,5Y25,6S89,6S8A

> <UniProt (SwissProt) Recommended Name of Target Chain>
Epidermal growth factor receptor

> <UniProt (SwissProt) Entry Name of Target Chain>
EGFR_HUMAN

> <UniProt (SwissProt) Primary ID of Target Chain>
P00533

> <UniProt (SwissProt) Secondary ID(s) of Target Chain>
O00688,O00732,P06268,Q14225,Q68GS5,Q92795,Q9BZS2,Q9GZX1,Q9H2C9,Q9H3C9,Q9UMD7,Q9UMD8,Q9UMG5

> <UniProt (SwissProt) Alternative ID(s) of Target Chain>


> <UniProt (TrEMBL) Submitted Name of Target Chain>


> <UniProt (TrEMBL) Entry Name of Target Chain>


> <UniProt (TrEMBL) Primary ID of Target Chain>


> <UniProt (TrEMBL) Secondary ID(s) of Target Chain>


> <UniProt (TrEMBL) Alternative ID(s) of Target Chain>


> <training label>
7.5376

> <i_lp_mmshare_version>
54117

> <s_epik_input>
W09IXVtOSF1DKD1PKVtDSDJdW0NIMl1bQ0gyXVtDSDJdW0NIMl1bQ0gyXU9jKFtjSF0xKWMoT1tDSDNdKVtjSF1jKGMxMiluW2NIXW5jMltOSF1jM1tjSF1jKEMjW0NIXSljKEYpW2NIXVtjSF0z

> <s_epik_cmdline>
J2VwaWtfcHl0aG9uJywgJy1waHQnLCAnMC4xJywgJy1waCcsICc3LjQnLCAnLXRuJywgJzgnLCAnLW1hJywgJzIwMCcsICctaW1hZScsICc8aW5maWxlLm1hZT4nLCAnLW9tYWUnLCAnPG91dGZpbGUubWFlPic=

> <r_lp_tautomer_probability>
1

> <r_epik_Ionization_Penalty>
  0.0093

> <r_epik_Ionization_Penalty_Charging>
  0.0000

> <r_epik_Ionization_Penalty_Neutral>
  0.0093

> <r_epik_State_Penalty>
  0.0000

> <r_epik_Charging_Adjusted_Penalty>
0

> <i_epik_Tot_Q>
0

> <i_epik_Tot_abs_Q>
0

> <i_f3d_flags>
0

> <s_lp_Force_Field>
OPLS_2005

> <r_lp_Energy>
26.467633

> <b_lp_Chiralities_Consistent>
1

> <s_lp_Variant>
BindingDB_50307776_mol_1-1

> <s_i_glide_gridfile>
struct_1_site_1

> <i_i_glide_lignum>
200

> <i_i_glide_rotatable_bonds>
14

> <r_i_docking_score>
-8.58048691465669

> <r_i_glide_ligand_efficiency>
-0.260014754989597

> <r_i_glide_ligand_efficiency_sa>
-0.834006251962548

> <r_i_glide_ligand_efficiency_ln>
-1.90825586243611

> <r_i_glide_gscore>
-8.58048691465669

> <r_i_glide_lipo>
-3.31232025812748

> <r_i_glide_hbond>
-0.307865569240031

> <r_i_glide_metal>
0

> <r_i_glide_rewards>
-1.47091876809705

> <r_i_glide_evdw>
-45.9165115356445

> <r_i_glide_ecoul>
-14.5038032531738

> <r_i_glide_erotb>
1.17607412092137

> <r_i_glide_esite>
-0.194060375355193

> <r_i_glide_emodel>
-67.9687588277537

> <r_i_glide_energy>
-60.4203147888184

> <r_i_glide_einternal>
9.76405811309814

> <i_i_glide_confnum>
143

> <i_i_glide_posenum>
342

> <r_i_glide_eff_state_penalty>
0

> <IC50 (nM)>
29

> <PMID>
20143778

> <s_epik_Chemistry_Notes>
This compound has a N-S or N-O group and may undergo hydrolysis at high or low pH.

> <r_glide_shape_similarity>
0.781483471393585

> <s_m_subgroup_title>
505 training

> <s_m_subgroupid>
pocket_pv

> <b_m_subgroup_collapsed>
0

$$$$
BindingDB_50117961
                    3D
 Schrodinger Suite 2021-2.
 48 51  0  0  1  0            999 V2000
   21.7115   -0.0189   53.2461 C   0  0  0  0  0  0
   23.0576    0.0620   53.6692 C   0  0  0  0  0  0
   28.1389   -1.2252   53.1386 C   0  0  0  0  0  0
   29.4363   -1.3756   53.4977 N   0  0  0  0  0  0
   20.8854   -0.9531   53.9135 C   0  0  0  0  0  0
   27.4541   -2.3159   52.7934 N   0  0  0  0  0  0
   21.1863    0.7806   52.2070 C   0  0  0  0  0  0
   23.5432   -0.7943   54.5914 N   0  0  0  0  0  0
   19.5159   -1.0001   53.5766 C   0  0  0  0  0  0
   23.8934    1.0909   53.1975 N   0  0  0  0  0  0
   28.3709   -3.2649   52.9752 N   0  0  0  0  0  0
   19.8169    0.7105   51.8632 C   0  0  0  0  0  0
   18.9637   -0.1533   52.5812 C   0  0  0  0  0  0
   29.4898   -2.6914   53.3841 C   0  0  0  0  0  0
   27.4512    0.0451   53.2451 C   0  0  0  0  0  0
   21.3982   -1.7653   54.8644 N   0  0  0  0  0  0
   22.6970   -1.6622   55.1299 C   0  0  0  0  0  0
   25.2872    1.1753   53.2748 C   0  0  0  0  0  0
   26.0495    0.0155   53.1890 C   0  0  0  0  0  0
   19.2166    1.4604   50.8673 O   0  0  0  0  0  0
   17.6190   -0.0700   52.2595 O   0  0  0  0  0  0
   28.1163    1.2746   53.3962 C   0  0  0  0  0  0
   27.3614    2.4557   53.4504 C   0  0  0  0  0  0
   25.9543    2.4073   53.3804 C   0  0  0  0  0  0
   19.9779    2.3366   50.0473 C   0  0  0  0  0  0
   16.6403   -0.7872   53.0111 C   0  0  0  0  0  0
   20.6444    1.5836   48.9008 C   0  0  0  0  0  0
   15.3082   -0.0133   53.0320 C   0  0  0  0  0  0
   21.8442    1.4468   51.6703 H   0  0  0  0  0  0
   18.9021   -1.6976   54.1213 H   0  0  0  0  0  0
   23.4262    1.8829   52.7858 H   0  0  0  0  0  0
   28.1637   -4.2576   52.9069 H   0  0  0  0  0  0
   30.3348   -3.2778   53.6980 H   0  0  0  0  0  0
   23.0960   -2.3313   55.8795 H   0  0  0  0  0  0
   25.5271   -0.9185   53.0567 H   0  0  0  0  0  0
   29.1960    1.3210   53.4473 H   0  0  0  0  0  0
   27.8535    3.4112   53.5506 H   0  0  0  0  0  0
   25.3963    3.3333   53.4215 H   0  0  0  0  0  0
   20.6995    2.9192   50.6202 H   0  0  0  0  0  0
   19.2838    3.0669   49.6296 H   0  0  0  0  0  0
   16.5030   -1.7712   52.5549 H   0  0  0  0  0  0
   16.9279   -0.9483   54.0510 H   0  0  0  0  0  0
   21.2461    2.2599   48.2920 H   0  0  0  0  0  0
   19.8954    1.1339   48.2524 H   0  0  0  0  0  0
   21.2990    0.7940   49.2706 H   0  0  0  0  0  0
   14.4932   -0.6607   53.3626 H   0  0  0  0  0  0
   15.3560    0.8078   53.7532 H   0  0  0  0  0  0
   15.0503    0.3796   52.0471 H   0  0  0  0  0  0
  1  2  1  0  0  0
  1  5  1  0  0  0
  1  7  2  0  0  0
  2  8  2  0  0  0
  2 10  1  0  0  0
  3  4  1  0  0  0
  3  6  2  0  0  0
  3 15  1  0  0  0
  4 14  2  0  0  0
  5  9  2  0  0  0
  5 16  1  0  0  0
  6 11  1  0  0  0
  7 12  1  0  0  0
  7 29  1  0  0  0
  8 17  1  0  0  0
  9 13  1  0  0  0
  9 30  1  0  0  0
 10 18  1  0  0  0
 10 31  1  0  0  0
 11 14  1  0  0  0
 11 32  1  0  0  0
 12 13  2  0  0  0
 12 20  1  0  0  0
 13 21  1  0  0  0
 14 33  1  0  0  0
 15 19  1  0  0  0
 15 22  2  0  0  0
 16 17  2  0  0  0
 17 34  1  0  0  0
 18 19  2  0  0  0
 18 24  1  0  0  0
 19 35  1  0  0  0
 20 25  1  0  0  0
 21 26  1  0  0  0
 22 23  1  0  0  0
 22 36  1  0  0  0
 23 24  2  0  0  0
 23 37  1  0  0  0
 24 38  1  0  0  0
 25 27  1  0  0  0
 25 39  1  0  0  0
 25 40  1  0  0  0
 26 28  1  0  0  0
 26 41  1  0  0  0
 26 42  1  0  0  0
 27 43  1  0  0  0
 27 44  1  0  0  0
 27 45  1  0  0  0
 28 46  1  0  0  0
 28 47  1  0  0  0
 28 48  1  0  0  0
M  END
> <s_m_entry_id>
198

> <s_m_entry_name>
pocket_pv.9

> <s_m_Source_Path>
/home/bortolaa/Project/GT/mario-master/docking/set505protein_struct_1_site_1_set505ligs_train

> <s_m_Source_File>
pocket_pv.maegz

> <i_m_Source_File_Index>
9

> <From>
www.bindingDB.org

> <BindingDB Reactant_set_id>
50213008

> <Ligand InChI>
InChI=1S/C20H20N6O2/c1-3-27-17-9-15-16(10-18(17)28-4-2)21-11-22-20(15)25-14-7-5-6-13(8-14)19-23-12-24-26-19/h5-12H,3-4H2,1-2H3,(H,21,22,25)(H,23,24,26)

> <Ligand InChI Key>
WGTILZRWWWHQLO-UHFFFAOYSA-N

> <BindingDB MonomerID>
50117961

> <BindingDB Ligand Name>
(6,7-Diethoxy-quinazolin-4-yl)-[3-(1H-[1,2,4]triazol-3-yl)-phenyl]-amine::CHEMBL127367

> <Target Name Assigned by Curator or DataSource>
Epidermal growth factor receptor

> <Target Source Organism According to Curator or DataSource>
Homo sapiens

> <Ki (nM)>


> <Kd (nM)>


> <EC50 (nM)>


> <kon (M-1-s-1)>


> <koff (s-1)>


> <pH>


> <Temp C>


> <Curation/DataSource>
ChEMBL

> <Article DOI>
10.1021/jm010496a

> <PubChem AID>


> <Patent Number>


> <Authors>
Wright, SW; Carlo, AA; Carty, MD; Danley, DE; Hageman, DL; Karam, GA; Levy, CB; Mansour, MN; Mathiowetz, AM; McClure, LD; Nestor, NB; McPherson, RK; Pandit, J; Pustilnik, LR; Schulte, GK; Soeller, WC; Treadway, JL; Wang, IK; Bauer, PH

> <Institution>
Pfizer Central Research

> <Link to Ligand in BindingDB>
http://www.bindingdb.org/bind/chemsearch/marvin/MolStructure.jsp?monomerid=50117961

> <Link to Ligand-Target Pair in BindingDB>
http://www.bindingdb.org/jsp/dbsearch/PrimarySearch_ki.jsp?energyterm=kJ/mole&tag=r21&monomerid=50117961&enzyme=Epidermal+growth+factor+receptor&column=ki&startPg=0&Increment=50&submit=Search

> <Ligand HET ID in PDB>


> <PDB ID(s) for Ligand-Target Complex>


> <PubChem CID>
10215809

> <PubChem SID>
104011365

> <ChEBI ID of Ligand>


> <ChEMBL ID of Ligand>
CHEMBL127367

> <DrugBank ID of Ligand>


> <IUPHAR_GRAC ID of Ligand>


> <KEGG ID of Ligand>


> <ZINC ID of Ligand>
ZINC13490802

> <Number of Protein Chains in Target (>
1

> <BindingDB Target Chain Sequence>
MRPSGTAGAALLALLAALCPASRALEEKKVCQGTSNKLTQLGTFEDHFLSLQRMFNNCEVVLGNLEITYVQRNYDLSFLKTIQEVAGYVLIALNTVERIPLENLQIIRGNMYYENSYALAVLSNYDANKTGLKELPMRNLQEILHGAVRFSNNPALCNVESIQWRDIVSSDFLSNMSMDFQNHLGSCQKCDPSCPNGSCWGAGEENCQKLTKIICAQQCSGRCRGKSPSDCCHNQCAAGCTGPRESDCLVCRKFRDEATCKDTCPPLMLYNPTTYQMDVNPEGKYSFGATCVKKCPRNYVVTDHGSCVRACGADSYEMEEDGVRKCKKCEGPCRKVCNGIGIGEFKDSLSINATNIKHFKNCTSISGDLHILPVAFRGDSFTHTPPLDPQELDILKTVKEITGFLLIQAWPENRTDLHAFENLEIIRGRTKQHGQFSLAVVSLNITSLGLRSLKEISDGDVIISGNKNLCYANTINWKKLFGTSGQKTKIISNRGENSCKATGQVCHALCSPEGCWGPEPRDCVSCRNVSRGRECVDKCNLLEGEPREFVENSECIQCHPECLPQAMNITCTGRGPDNCIQCAHYIDGPHCVKTCPAGVMGENNTLVWKYADAGHVCHLCHPNCTYGCTGPGLEGCPTNGPKIPSIATGMVGALLLLLVVALGIGLFMRRRHIVRKRTLRRLLQERELVEPLTPSGEAPNQALLRILKETEFKKIKVLGSGAFGTVYKGLWIPEGEKVKIPVAIKELREATSPKANKEILDEAYVMASVDNPHVCRLLGICLTSTVQLITQLMPFGCLLDYVREHKDNIGSQYLLNWCVQIAKGMNYLEDRRLVHRDLAARNVLVKTPQHVKITDFGLAKLLGAEEKEYHAEGGKVPIKWMALESILHRIYTHQSDVWSYGVTVWELMTFGSKPYDGIPASEISSILEKGERLPQPPICTIDVYMIMVKCWMIDADSRPKFRELIIEFSKMARDPQRYLVIQGDERMHLPSPTDSNFYRALMDEEDMDDVVDADEYLIPQQGFFSSPSTSRTPLLSSLSATSNNSTVACIDRNGLQSCPIKEDSFLQRYSSDPTGALTEDSIDDTFLPVPEYINQSVPKRPAGSVQNPVYHNQPLNPAPSRDPHYQDPHSTAVGNPEYLNTVQPTCVNSTFDSPAHWAQKGSHQISLDNPDYQQDFFPKEAKPNGIFKGSTAENAEYLRVAPQSSEFIGA

> <PDB ID(s) of Target Chain>
1IVO,1M14,1M17,1MOX,1XKK,1Z9I,2GS2,2GS6,2ITW,2ITX,2ITY,2J5E,2J5F,2J6M,2RF9,2RGP,3B2V,3BEL,3GOP,3POZ,3QWQ,3VJO,3W2O,3W2P,3W2Q,3W2R,3W2S,3W32,3W33,4G5J,4I23,4JQ7,4JQ8,4JR3,4JRV,4KRO,4LI5,4RJ4,4RJ5,4RJ6,4RJ7,4RJ8,4TKS,4UIP,4UV7,4WKQ,4WRG,4ZAU,5C8K,5C8M,5C8N,5CAL,5CAN,5CAO,5CAP,5CAQ,5CAS,5CAU,5CAV,5EDP,5EDQ,5EDR,5EM5,5EM6,5EM7,5EM8,5FED,5GNK,5HCX,5HCY,5HCZ,5HIB,5HIC,5UGB,5WB7,5WB8,5Y25,6S89,6S8A

> <UniProt (SwissProt) Recommended Name of Target Chain>
Epidermal growth factor receptor

> <UniProt (SwissProt) Entry Name of Target Chain>
EGFR_HUMAN

> <UniProt (SwissProt) Primary ID of Target Chain>
P00533

> <UniProt (SwissProt) Secondary ID(s) of Target Chain>
O00688,O00732,P06268,Q14225,Q68GS5,Q92795,Q9BZS2,Q9GZX1,Q9H2C9,Q9H3C9,Q9UMD7,Q9UMD8,Q9UMG5

> <UniProt (SwissProt) Alternative ID(s) of Target Chain>


> <UniProt (TrEMBL) Submitted Name of Target Chain>


> <UniProt (TrEMBL) Entry Name of Target Chain>


> <UniProt (TrEMBL) Primary ID of Target Chain>


> <UniProt (TrEMBL) Secondary ID(s) of Target Chain>


> <UniProt (TrEMBL) Alternative ID(s) of Target Chain>


> <training label>
6.40894

> <i_lp_mmshare_version>
54117

> <s_epik_input>
W0NIM11bQ0gyXU9jKFtjSF0xKWMoT1tDSDJdW0NIM10pW2NIXWMoYzEyKW5bY0hdbmMyW05IXWMoW2NIXVtjSF1bY0hdMylbY0hdYzMtYzRuW2NIXVtuSF1uNA==

> <s_epik_cmdline>
J2VwaWtfcHl0aG9uJywgJy1waHQnLCAnMC4xJywgJy1waCcsICc3LjQnLCAnLXRuJywgJzgnLCAnLW1hJywgJzIwMCcsICctaW1hZScsICc8aW5maWxlLm1hZT4nLCAnLW9tYWUnLCAnPG91dGZpbGUubWFlPic=

> <r_lp_tautomer_probability>
1

> <r_epik_Ionization_Penalty>
  0.0056

> <r_epik_Ionization_Penalty_Charging>
  0.0000

> <r_epik_Ionization_Penalty_Neutral>
  0.0056

> <r_epik_State_Penalty>
  0.0000

> <r_epik_Charging_Adjusted_Penalty>
0

> <i_epik_Tot_Q>
0

> <i_epik_Tot_abs_Q>
0

> <i_f3d_flags>
0

> <s_lp_Force_Field>
OPLS_2005

> <r_lp_Energy>
23.36989

> <b_lp_Chiralities_Consistent>
1

> <s_lp_Variant>
BindingDB_50117961-1

> <s_i_glide_gridfile>
struct_1_site_1

> <i_i_glide_lignum>
114

> <i_i_glide_rotatable_bonds>
7

> <r_i_docking_score>
-8.56223587485697

> <r_i_glide_ligand_efficiency>
-0.305794138387749

> <r_i_glide_ligand_efficiency_sa>
-0.928571107261062

> <r_i_glide_ligand_efficiency_ln>
-1.97641543808621

> <r_i_glide_gscore>
-8.56223587485697

> <r_i_glide_lipo>
-2.51935934196021

> <r_i_glide_hbond>
-0.506298275934406

> <r_i_glide_metal>
0

> <r_i_glide_rewards>
-2.8719571824591

> <r_i_glide_evdw>
-47.070484161377

> <r_i_glide_ecoul>
-6.62804269790649

> <r_i_glide_erotb>
0.683109538251574

> <r_i_glide_esite>
0

> <r_i_glide_emodel>
-64.4275100167753

> <r_i_glide_energy>
-53.6985268592834

> <r_i_glide_einternal>
3.5583701133728

> <i_i_glide_confnum>
16

> <i_i_glide_posenum>
13

> <r_i_glide_eff_state_penalty>
0

> <IC50 (nM)>
390

> <PMID>
12190310

> <r_glide_shape_similarity>
0.857948839664459

> <s_m_subgroup_title>
505 training

> <s_m_subgroupid>
pocket_pv

> <b_m_subgroup_collapsed>
0

$$$$
BindingDB_50291098_mol_1
                    3D
 Schrodinger Suite 2021-2.
 43 46  0  0  1  0            999 V2000
   22.0654   -0.1677   53.5023 C   0  0  0  0  0  0
   23.4224   -0.0896   53.8695 C   0  0  0  0  0  0
   21.2655   -1.1116   54.1803 C   0  0  0  0  0  0
   21.5177    0.6392   52.4888 C   0  0  0  0  0  0
   23.9215   -0.8915   54.8241 N   0  0  0  0  0  0
   19.9031   -1.2024   53.8346 C   0  0  0  0  0  0
   24.2592    0.8702   53.2908 N   0  0  0  0  0  0
   20.1638    0.5258   52.1416 C   0  0  0  0  0  0
   19.3416   -0.3779   52.8336 C   0  0  0  0  0  0
   21.7952   -1.8905   55.1366 N   0  0  0  0  0  0
   27.7581   -0.1830   53.3743 C   0  0  0  0  0  0
   23.0874   -1.7372   55.4048 C   0  0  0  0  0  0
   25.6417    0.9368   53.3328 C   0  0  0  0  0  0
   26.3822   -0.2547   53.3083 C   0  0  0  0  0  0
   28.4002    1.0311   53.4433 C   0  0  0  0  0  0
   27.6973    2.2472   53.4226 C   0  0  0  0  0  0
   26.2913    2.1881   53.3693 C   0  0  0  0  0  0
   19.5850    1.2676   51.1390 O   0  0  0  0  0  0
   18.0222   -0.3875   52.4428 O   0  0  0  0  0  0
   28.6808   -1.3568   53.3653 C   0  0  0  0  0  0
   30.0594   -0.7169   53.5099 C   0  0  0  0  0  0
   29.8728    0.8195   53.4920 C   0  0  0  0  0  0
   17.0946   -1.1117   53.2163 C   0  0  0  0  0  0
   20.3963    1.6209   50.0337 C   0  0  0  0  0  0
   22.1377    1.3492   51.9646 H   0  0  0  0  0  0
   19.2901   -1.8965   54.3842 H   0  0  0  0  0  0
   23.8077    1.6353   52.8289 H   0  0  0  0  0  0
   23.5013   -2.3685   56.1734 H   0  0  0  0  0  0
   25.9104   -1.2209   53.2291 H   0  0  0  0  0  0
   28.2024    3.1994   53.4606 H   0  0  0  0  0  0
   25.7225    3.1075   53.3583 H   0  0  0  0  0  0
   28.4594   -2.0471   54.1735 H   0  0  0  0  0  0
   28.5794   -1.9029   52.4289 H   0  0  0  0  0  0
   30.6889   -1.0325   52.6767 H   0  0  0  0  0  0
   30.5445   -1.0335   54.4335 H   0  0  0  0  0  0
   30.2896    1.2053   52.5751 H   0  0  0  0  0  0
   30.3113    1.3220   54.3508 H   0  0  0  0  0  0
   16.0836   -0.8728   52.8799 H   0  0  0  0  0  0
   17.2539   -2.1887   53.1003 H   0  0  0  0  0  0
   17.1623   -0.8589   54.2754 H   0  0  0  0  0  0
   19.7639    1.9600   49.2136 H   0  0  0  0  0  0
   20.9770    0.7680   49.6745 H   0  0  0  0  0  0
   21.0775    2.4377   50.2847 H   0  0  0  0  0  0
  1  2  2  0  0  0
  1  3  1  0  0  0
  1  4  1  0  0  0
  2  5  1  0  0  0
  2  7  1  0  0  0
  3  6  1  0  0  0
  3 10  2  0  0  0
  4  8  2  0  0  0
  4 25  1  0  0  0
  5 12  2  0  0  0
  6  9  2  0  0  0
  6 26  1  0  0  0
  7 13  1  0  0  0
  7 27  1  0  0  0
  8  9  1  0  0  0
  8 18  1  0  0  0
  9 19  1  0  0  0
 10 12  1  0  0  0
 11 14  2  0  0  0
 11 15  1  0  0  0
 11 20  1  0  0  0
 12 28  1  0  0  0
 13 14  1  0  0  0
 13 17  2  0  0  0
 14 29  1  0  0  0
 15 16  2  0  0  0
 15 22  1  0  0  0
 16 17  1  0  0  0
 16 30  1  0  0  0
 17 31  1  0  0  0
 18 24  1  0  0  0
 19 23  1  0  0  0
 20 21  1  0  0  0
 20 32  1  0  0  0
 20 33  1  0  0  0
 21 22  1  0  0  0
 21 34  1  0  0  0
 21 35  1  0  0  0
 22 36  1  0  0  0
 22 37  1  0  0  0
 23 38  1  0  0  0
 23 39  1  0  0  0
 23 40  1  0  0  0
 24 41  1  0  0  0
 24 42  1  0  0  0
 24 43  1  0  0  0
M  END
> <s_m_entry_id>
199

> <s_m_entry_name>
pocket_pv.10

> <s_m_Source_Path>
/home/bortolaa/Project/GT/mario-master/docking/set505protein_struct_1_site_1_set505ligs_train

> <s_m_Source_File>
pocket_pv.maegz

> <i_m_Source_File_Index>
10

> <From>
www.bindingDB.org

> <BindingDB Reactant_set_id>
50726974

> <Ligand InChI>
InChI=1S/C19H19N3O2/c1-23-17-9-15-16(10-18(17)24-2)20-11-21-19(15)22-14-7-6-12-4-3-5-13(12)8-14/h6-11H,3-5H2,1-2H3,(H,20,21,22)

> <Ligand InChI Key>
ROWZBCBRQQSSRI-UHFFFAOYSA-N

> <BindingDB MonomerID>
50291098

> <BindingDB Ligand Name>
(6,7-Dimethoxy-quinazolin-4-yl)-indan-5-yl-amine; hydrochloride, 1.4 M H2O::CHEMBL555797

> <Target Name Assigned by Curator or DataSource>
Epidermal growth factor receptor

> <Target Source Organism According to Curator or DataSource>
Homo sapiens

> <Ki (nM)>


> <IC50 (nM)>
600

> <Kd (nM)>


> <EC50 (nM)>


> <kon (M-1-s-1)>


> <koff (s-1)>


> <pH>


> <Temp C>


> <Curation/DataSource>
ChEMBL

> <Article DOI>
10.1016/S0960-894X(97)00034-6

> <PMID>


> <PubChem AID>


> <Patent Number>


> <Authors>
Myers, MR; Setzer, NN; Spada, A; Zulli, AL; Hsu, CJ; Zilberstein, A; Johnson, SE; Hook, LE; Jacoski, MV

> <Institution>
TBA

> <Link to Ligand in BindingDB>
http://www.bindingdb.org/bind/chemsearch/marvin/MolStructure.jsp?monomerid=50291098

> <Link to Ligand-Target Pair in BindingDB>
http://www.bindingdb.org/jsp/dbsearch/PrimarySearch_ki.jsp?energyterm=kJ/mole&tag=r21&monomerid=50291098&enzyme=Epidermal+growth+factor+receptor&column=ki&startPg=0&Increment=50&submit=Search

> <Ligand HET ID in PDB>


> <PDB ID(s) for Ligand-Target Complex>


> <PubChem CID>
18770788

> <PubChem SID>
104132650

> <ChEBI ID of Ligand>


> <ChEMBL ID of Ligand>
CHEMBL555797

> <DrugBank ID of Ligand>


> <IUPHAR_GRAC ID of Ligand>


> <KEGG ID of Ligand>


> <ZINC ID of Ligand>
ZINC27412198

> <Number of Protein Chains in Target (>
1

> <BindingDB Target Chain Sequence>
MRPSGTAGAALLALLAALCPASRALEEKKVCQGTSNKLTQLGTFEDHFLSLQRMFNNCEVVLGNLEITYVQRNYDLSFLKTIQEVAGYVLIALNTVERIPLENLQIIRGNMYYENSYALAVLSNYDANKTGLKELPMRNLQEILHGAVRFSNNPALCNVESIQWRDIVSSDFLSNMSMDFQNHLGSCQKCDPSCPNGSCWGAGEENCQKLTKIICAQQCSGRCRGKSPSDCCHNQCAAGCTGPRESDCLVCRKFRDEATCKDTCPPLMLYNPTTYQMDVNPEGKYSFGATCVKKCPRNYVVTDHGSCVRACGADSYEMEEDGVRKCKKCEGPCRKVCNGIGIGEFKDSLSINATNIKHFKNCTSISGDLHILPVAFRGDSFTHTPPLDPQELDILKTVKEITGFLLIQAWPENRTDLHAFENLEIIRGRTKQHGQFSLAVVSLNITSLGLRSLKEISDGDVIISGNKNLCYANTINWKKLFGTSGQKTKIISNRGENSCKATGQVCHALCSPEGCWGPEPRDCVSCRNVSRGRECVDKCNLLEGEPREFVENSECIQCHPECLPQAMNITCTGRGPDNCIQCAHYIDGPHCVKTCPAGVMGENNTLVWKYADAGHVCHLCHPNCTYGCTGPGLEGCPTNGPKIPSIATGMVGALLLLLVVALGIGLFMRRRHIVRKRTLRRLLQERELVEPLTPSGEAPNQALLRILKETEFKKIKVLGSGAFGTVYKGLWIPEGEKVKIPVAIKELREATSPKANKEILDEAYVMASVDNPHVCRLLGICLTSTVQLITQLMPFGCLLDYVREHKDNIGSQYLLNWCVQIAKGMNYLEDRRLVHRDLAARNVLVKTPQHVKITDFGLAKLLGAEEKEYHAEGGKVPIKWMALESILHRIYTHQSDVWSYGVTVWELMTFGSKPYDGIPASEISSILEKGERLPQPPICTIDVYMIMVKCWMIDADSRPKFRELIIEFSKMARDPQRYLVIQGDERMHLPSPTDSNFYRALMDEEDMDDVVDADEYLIPQQGFFSSPSTSRTPLLSSLSATSNNSTVACIDRNGLQSCPIKEDSFLQRYSSDPTGALTEDSIDDTFLPVPEYINQSVPKRPAGSVQNPVYHNQPLNPAPSRDPHYQDPHSTAVGNPEYLNTVQPTCVNSTFDSPAHWAQKGSHQISLDNPDYQQDFFPKEAKPNGIFKGSTAENAEYLRVAPQSSEFIGA

> <PDB ID(s) of Target Chain>
1IVO,1M14,1M17,1MOX,1XKK,1Z9I,2GS2,2GS6,2ITW,2ITX,2ITY,2J5E,2J5F,2J6M,2RF9,2RGP,3B2V,3BEL,3GOP,3POZ,3QWQ,3VJO,3W2O,3W2P,3W2Q,3W2R,3W2S,3W32,3W33,4G5J,4I23,4JQ7,4JQ8,4JR3,4JRV,4KRO,4LI5,4RJ4,4RJ5,4RJ6,4RJ7,4RJ8,4TKS,4UIP,4UV7,4WKQ,4WRG,4ZAU,5C8K,5C8M,5C8N,5CAL,5CAN,5CAO,5CAP,5CAQ,5CAS,5CAU,5CAV,5EDP,5EDQ,5EDR,5EM5,5EM6,5EM7,5EM8,5FED,5GNK,5HCX,5HCY,5HCZ,5HIB,5HIC,5UGB,5WB7,5WB8,5Y25,6S89,6S8A

> <UniProt (SwissProt) Recommended Name of Target Chain>
Epidermal growth factor receptor

> <UniProt (SwissProt) Entry Name of Target Chain>
EGFR_HUMAN

> <UniProt (SwissProt) Primary ID of Target Chain>
P00533

> <UniProt (SwissProt) Secondary ID(s) of Target Chain>
O00688,O00732,P06268,Q14225,Q68GS5,Q92795,Q9BZS2,Q9GZX1,Q9H2C9,Q9H3C9,Q9UMD7,Q9UMD8,Q9UMG5

> <UniProt (SwissProt) Alternative ID(s) of Target Chain>


> <UniProt (TrEMBL) Submitted Name of Target Chain>


> <UniProt (TrEMBL) Entry Name of Target Chain>


> <UniProt (TrEMBL) Primary ID of Target Chain>


> <UniProt (TrEMBL) Secondary ID(s) of Target Chain>


> <UniProt (TrEMBL) Alternative ID(s) of Target Chain>


> <training label>
6.22185

> <i_lp_mmshare_version>
54117

> <s_epik_input>
W0NIM11PYyhbY0hdMSljKE9bQ0gzXSlbY0hdYyhjMTIpbltjSF1uYzJbTkhdYyhbY0hdMylbY0hdW2NIXWMoYzM0KVtDSDJdW0NIMl1bQ0gyXTQ=

> <s_epik_cmdline>
J2VwaWtfcHl0aG9uJywgJy1waHQnLCAnMC4xJywgJy1waCcsICc3LjQnLCAnLXRuJywgJzgnLCAnLW1hJywgJzIwMCcsICctaW1hZScsICc8aW5maWxlLm1hZT4nLCAnLW9tYWUnLCAnPG91dGZpbGUubWFlPic=

> <r_lp_tautomer_probability>
1

> <r_epik_Ionization_Penalty>
  0.0006

> <r_epik_Ionization_Penalty_Charging>
  0.0000

> <r_epik_Ionization_Penalty_Neutral>
  0.0006

> <r_epik_State_Penalty>
  0.0000

> <r_epik_Charging_Adjusted_Penalty>
0

> <i_epik_Tot_Q>
0

> <i_epik_Tot_abs_Q>
0

> <i_f3d_flags>
0

> <s_lp_Force_Field>
OPLS_2005

> <r_lp_Energy>
33.470415

> <b_lp_Chiralities_Consistent>
1

> <s_lp_Variant>
BindingDB_50291098_mol_1-1

> <s_i_glide_gridfile>
struct_1_site_1

> <i_i_glide_lignum>
99

> <i_i_glide_rotatable_bonds>
4

> <r_i_docking_score>
-8.51499066952673

> <r_i_glide_ligand_efficiency>
-0.354791277896947

> <r_i_glide_ligand_efficiency_sa>
-1.02339513510724

> <r_i_glide_ligand_efficiency_ln>
-2.03802799467943

> <r_i_glide_gscore>
-8.51499066952673

> <r_i_glide_lipo>
-3.29654395400284

> <r_i_glide_hbond>
-0.32

> <r_i_glide_metal>
0

> <r_i_glide_rewards>
-2.37923198787714

> <r_i_glide_evdw>
-39.1639518737793

> <r_i_glide_ecoul>
-6.15239906311035

> <r_i_glide_erotb>
0.361842725508763

> <r_i_glide_esite>
0

> <r_i_glide_emodel>
-50.9359118514736

> <r_i_glide_energy>
-45.3163509368896

> <r_i_glide_einternal>
0.420432716608047

> <i_i_glide_confnum>
1

> <i_i_glide_posenum>
52

> <r_i_glide_eff_state_penalty>
0

> <r_glide_shape_similarity>
0.824964940547943

> <s_m_subgroup_title>
505 training

> <s_m_subgroupid>
pocket_pv

> <b_m_subgroup_collapsed>
0

$$$$
4-Anilinoquinazoline
                    3D
 Schrodinger Suite 2021-2.
 57 60  0  0  1  0            999 V2000
   23.4264   -0.0756   53.8816 C   0  0  0  0  0  0
   23.0892   -1.7433   55.4214 C   0  0  0  0  0  0
   21.2606   -1.1074   54.1848 C   0  0  0  0  0  0
   22.0650   -0.1504   53.5046 C   0  0  0  0  0  0
   21.5155    0.6602   52.4858 C   0  0  0  0  0  0
   20.1569    0.5241   52.1174 C   0  0  0  0  0  0
   19.3397   -0.4000   52.8084 C   0  0  0  0  0  0
   19.8948   -1.2085   53.8339 C   0  0  0  0  0  0
   23.9221   -0.8853   54.8467 N   0  0  0  0  0  0
   21.7953   -1.9012   55.1428 N   0  0  0  0  0  0
   25.7056    0.5272   53.1514 C   0  0  0  0  0  0
   28.0498    1.0930   53.5655 C   0  0  0  0  0  0
   26.6976    1.4932   53.4478 C   0  0  0  0  0  0
   26.0892   -0.7986   52.8354 C   0  0  0  0  0  0
   27.4182   -1.2088   52.9763 C   0  0  0  0  0  0
   28.3791   -0.2743   53.3899 C   0  0  0  0  0  0
   26.3429    2.7707   53.7114 F   0  0  0  0  0  0
   24.3361    0.8046   53.2653 N   0  0  0  0  0  0
   24.0082    1.7135   52.9675 H   0  0  0  0  0  0
   19.5759    1.2578   51.0991 O   0  0  0  0  0  0
   20.3988    1.6562   50.0061 C   0  0  0  0  0  0
   18.0397   -0.5118   52.3649 O   0  0  0  0  0  0
   17.0092   -0.7566   53.3083 C   0  0  0  0  0  0
   15.7784    0.0194   52.8679 C   0  0  0  0  0  0
   14.5154   -0.4388   52.9189 C   0  0  0  0  0  0
   13.3124    0.2832   52.3212 C   0  0  0  0  0  0
   12.0115    0.5444   54.5113 C   0  0  0  0  0  0
   13.1616    2.4514   53.6108 C   0  0  0  0  0  0
   12.2893    2.9836   54.7602 C   0  0  0  0  0  0
   11.8746    1.7100   55.5284 C   0  0  0  0  0  0
   12.5326    1.1539   53.2521 N   0  3  0  0  0  0
   29.6724   -0.8113   53.7285 C   0  0  0  0  0  0
   30.6892   -1.2662   54.0129 N   0  0  0  0  0  0
   23.5060   -2.3963   56.1724 H   0  0  0  0  0  0
   22.1407    1.3741   51.9722 H   0  0  0  0  0  0
   19.2793   -1.9320   54.3462 H   0  0  0  0  0  0
   28.8001    1.8089   53.8707 H   0  0  0  0  0  0
   25.3496   -1.5430   52.5773 H   0  0  0  0  0  0
   27.6742   -2.2496   52.8294 H   0  0  0  0  0  0
   19.7687    1.9886   49.1812 H   0  0  0  0  0  0
   21.0482    2.4870   50.2830 H   0  0  0  0  0  0
   21.0107    0.8284   49.6433 H   0  0  0  0  0  0
   17.2971   -0.4658   54.3160 H   0  0  0  0  0  0
   16.7872   -1.8238   53.3375 H   0  0  0  0  0  0
   15.9712    1.0054   52.4715 H   0  0  0  0  0  0
   14.3186   -1.3999   53.3712 H   0  0  0  0  0  0
   12.6421   -0.4690   51.9038 H   0  0  0  0  0  0
   13.6424    0.8915   51.4779 H   0  0  0  0  0  0
   12.6846   -0.2183   54.9037 H   0  0  0  0  0  0
   11.0511    0.0670   54.3177 H   0  0  0  0  0  0
   13.1983    3.1365   52.7632 H   0  0  0  0  0  0
   14.1819    2.2841   53.9570 H   0  0  0  0  0  0
   11.4019    3.4737   54.3564 H   0  0  0  0  0  0
   12.8168    3.7128   55.3732 H   0  0  0  0  0  0
   12.5462    1.5529   56.3700 H   0  0  0  0  0  0
   10.8645    1.7966   55.9286 H   0  0  0  0  0  0
   11.6999    1.4231   52.7314 H   0  0  0  0  0  0
  1  4  2  0  0  0
  1  9  1  0  0  0
  1 18  1  0  0  0
  2  9  2  0  0  0
  2 10  1  0  0  0
  2 34  1  0  0  0
  3  4  1  0  0  0
  3  8  1  0  0  0
  3 10  2  0  0  0
  4  5  1  0  0  0
  5  6  2  0  0  0
  5 35  1  0  0  0
  6  7  1  0  0  0
  6 20  1  0  0  0
  7  8  2  0  0  0
  7 22  1  0  0  0
  8 36  1  0  0  0
 11 13  2  0  0  0
 11 14  1  0  0  0
 11 18  1  0  0  0
 12 13  1  0  0  0
 12 16  2  0  0  0
 12 37  1  0  0  0
 13 17  1  0  0  0
 14 15  2  0  0  0
 14 38  1  0  0  0
 15 16  1  0  0  0
 15 39  1  0  0  0
 16 32  1  0  0  0
 18 19  1  0  0  0
 20 21  1  0  0  0
 21 40  1  0  0  0
 21 41  1  0  0  0
 21 42  1  0  0  0
 22 23  1  0  0  0
 23 24  1  0  0  0
 23 43  1  0  0  0
 23 44  1  0  0  0
 24 25  2  0  0  0
 24 45  1  0  0  0
 25 26  1  0  0  0
 25 46  1  0  0  0
 26 31  1  0  0  0
 26 47  1  0  0  0
 26 48  1  0  0  0
 27 30  1  0  0  0
 27 31  1  0  0  0
 27 49  1  0  0  0
 27 50  1  0  0  0
 28 29  1  0  0  0
 28 31  1  0  0  0
 28 51  1  0  0  0
 28 52  1  0  0  0
 29 30  1  0  0  0
 29 53  1  0  0  0
 29 54  1  0  0  0
 30 55  1  0  0  0
 30 56  1  0  0  0
 31 57  1  0  0  0
 32 33  3  0  0  0
M  CHG  1  31   1
M  END
> <s_m_entry_id>
200

> <s_m_entry_name>
pocket_pv.11

> <s_m_Source_Path>
/home/bortolaa/Project/GT/mario-master/docking/set505protein_struct_1_site_1_set505ligs_train

> <s_m_Source_File>
pocket_pv.maegz

> <i_m_Source_File_Index>
11

> <From>
www.bindingDB.org

> <BindingDB Reactant_set_id>
7079

> <Ligand InChI>
InChI=1S/C24H24FN5O2/c1-31-22-13-18-21(14-23(22)32-11-5-4-10-30-8-2-3-9-30)27-16-28-24(18)29-20-7-6-17(15-26)12-19(20)25/h4-7,12-14,16H,2-3,8-11H2,1H3,(H,27,28,29)/b5-4+

> <Ligand InChI Key>
DIZVEEIWWJAIEW-SNAWJCMRSA-N

> <BindingDB MonomerID>
4665

> <BindingDB Ligand Name>
3-fluoro-4-[(6-methoxy-7-{[(2E)-4-(pyrrolidin-1-yl)but-2-en-1-yl]oxy}quinazolin-4-yl)amino]benzonitrile::4-Anilinoquinazoline 12

> <Target Name Assigned by Curator or DataSource>
Epidermal growth factor receptor

> <Target Source Organism According to Curator or DataSource>
Homo sapiens

> <Ki (nM)>


> <IC50 (nM)>
800

> <Kd (nM)>


> <EC50 (nM)>


> <kon (M-1-s-1)>


> <koff (s-1)>


> <pH>


> <Curation/DataSource>
Curated from the literature by BindingDB

> <Article DOI>
10.1021/jm011022e

> <PubChem AID>


> <Patent Number>


> <Authors>
Hennequin, LF; Stokes, ES; Thomas, AP; Johnstone, C; Ple, PA; Ogilvie, DJ; Dukes, M; Wedge, SR; Kendrew, J; Curwen, JO

> <Institution>
AstraZeneca

> <Link to Ligand in BindingDB>
http://www.bindingdb.org/bind/chemsearch/marvin/MolStructure.jsp?monomerid=4665

> <Link to Ligand-Target Pair in BindingDB>
http://www.bindingdb.org/jsp/dbsearch/PrimarySearch_ki.jsp?energyterm=kJ/mole&tag=r21&monomerid=4665&enzyme=Epidermal+growth+factor+receptor&column=ki&startPg=0&Increment=50&submit=Search

> <Ligand HET ID in PDB>


> <PDB ID(s) for Ligand-Target Complex>


> <PubChem CID>
5329040

> <PubChem SID>
8034324

> <ChEBI ID of Ligand>


> <ChEMBL ID of Ligand>


> <DrugBank ID of Ligand>


> <IUPHAR_GRAC ID of Ligand>


> <KEGG ID of Ligand>


> <ZINC ID of Ligand>
ZINC13472786

> <Number of Protein Chains in Target (>
1

> <BindingDB Target Chain Sequence>
MRPSGTAGAALLALLAALCPASRALEEKKVCQGTSNKLTQLGTFEDHFLSLQRMFNNCEVVLGNLEITYVQRNYDLSFLKTIQEVAGYVLIALNTVERIPLENLQIIRGNMYYENSYALAVLSNYDANKTGLKELPMRNLQEILHGAVRFSNNPALCNVESIQWRDIVSSDFLSNMSMDFQNHLGSCQKCDPSCPNGSCWGAGEENCQKLTKIICAQQCSGRCRGKSPSDCCHNQCAAGCTGPRESDCLVCRKFRDEATCKDTCPPLMLYNPTTYQMDVNPEGKYSFGATCVKKCPRNYVVTDHGSCVRACGADSYEMEEDGVRKCKKCEGPCRKVCNGIGIGEFKDSLSINATNIKHFKNCTSISGDLHILPVAFRGDSFTHTPPLDPQELDILKTVKEITGFLLIQAWPENRTDLHAFENLEIIRGRTKQHGQFSLAVVSLNITSLGLRSLKEISDGDVIISGNKNLCYANTINWKKLFGTSGQKTKIISNRGENSCKATGQVCHALCSPEGCWGPEPRDCVSCRNVSRGRECVDKCNLLEGEPREFVENSECIQCHPECLPQAMNITCTGRGPDNCIQCAHYIDGPHCVKTCPAGVMGENNTLVWKYADAGHVCHLCHPNCTYGCTGPGLEGCPTNGPKIPSIATGMVGALLLLLVVALGIGLFMRRRHIVRKRTLRRLLQERELVEPLTPSGEAPNQALLRILKETEFKKIKVLGSGAFGTVYKGLWIPEGEKVKIPVAIKELREATSPKANKEILDEAYVMASVDNPHVCRLLGICLTSTVQLITQLMPFGCLLDYVREHKDNIGSQYLLNWCVQIAKGMNYLEDRRLVHRDLAARNVLVKTPQHVKITDFGLAKLLGAEEKEYHAEGGKVPIKWMALESILHRIYTHQSDVWSYGVTVWELMTFGSKPYDGIPASEISSILEKGERLPQPPICTIDVYMIMVKCWMIDADSRPKFRELIIEFSKMARDPQRYLVIQGDERMHLPSPTDSNFYRALMDEEDMDDVVDADEYLIPQQGFFSSPSTSRTPLLSSLSATSNNSTVACIDRNGLQSCPIKEDSFLQRYSSDPTGALTEDSIDDTFLPVPEYINQSVPKRPAGSVQNPVYHNQPLNPAPSRDPHYQDPHSTAVGNPEYLNTVQPTCVNSTFDSPAHWAQKGSHQISLDNPDYQQDFFPKEAKPNGIFKGSTAENAEYLRVAPQSSEFIGA

> <PDB ID(s) of Target Chain>
1IVO,1M14,1M17,1MOX,1XKK,1Z9I,2GS2,2GS6,2ITW,2ITX,2ITY,2J5E,2J5F,2J6M,2RF9,2RGP,3B2V,3BEL,3GOP,3POZ,3QWQ,3VJO,3W2O,3W2P,3W2Q,3W2R,3W2S,3W32,3W33,4G5J,4I23,4JQ7,4JQ8,4JR3,4JRV,4KRO,4LI5,4RJ4,4RJ5,4RJ6,4RJ7,4RJ8,4TKS,4UIP,4UV7,4WKQ,4WRG,4ZAU,5C8K,5C8M,5C8N,5CAL,5CAN,5CAO,5CAP,5CAQ,5CAS,5CAU,5CAV,5EDP,5EDQ,5EDR,5EM5,5EM6,5EM7,5EM8,5FED,5GNK,5HCX,5HCY,5HCZ,5HIB,5HIC,5UGB,5WB7,5WB8,5Y25,6S89,6S8A

> <UniProt (SwissProt) Recommended Name of Target Chain>
Epidermal growth factor receptor

> <UniProt (SwissProt) Entry Name of Target Chain>
EGFR_HUMAN

> <UniProt (SwissProt) Primary ID of Target Chain>
P00533

> <UniProt (SwissProt) Secondary ID(s) of Target Chain>
O00688,O00732,P06268,Q14225,Q68GS5,Q92795,Q9BZS2,Q9GZX1,Q9H2C9,Q9H3C9,Q9UMD7,Q9UMD8,Q9UMG5

> <UniProt (SwissProt) Alternative ID(s) of Target Chain>


> <UniProt (TrEMBL) Submitted Name of Target Chain>


> <UniProt (TrEMBL) Entry Name of Target Chain>


> <UniProt (TrEMBL) Primary ID of Target Chain>


> <UniProt (TrEMBL) Secondary ID(s) of Target Chain>


> <UniProt (TrEMBL) Alternative ID(s) of Target Chain>


> <training label>
6.09691

> <i_lp_mmshare_version>
54117

> <s_epik_input>
W2NIXTFbY0hdYyhDI04pW2NIXWMoRiljMVtOSF1jKG5bY0hdbjIpYyhjMjMpW2NIXWMoT1tDSDNdKWMoW2NIXTMpT1tDSDJdL1tDSF09W0NIXS9bQ0gyXU40W0NIMl1bQ0gyXVtDSDJdW0NIMl00

> <s_epik_cmdline>
J2VwaWtfcHl0aG9uJywgJy1waHQnLCAnMC4xJywgJy1waCcsICc3LjQnLCAnLXRuJywgJzgnLCAnLW1hJywgJzIwMCcsICctaW1hZScsICc8aW5maWxlLm1hZT4nLCAnLW9tYWUnLCAnPG91dGZpbGUubWFlPic=

> <r_lp_tautomer_probability>
1

> <r_epik_Ionization_Penalty>
  0.0131

> <r_epik_Ionization_Penalty_Charging>
  0.0125

> <r_epik_Ionization_Penalty_Neutral>
  0.0006

> <r_epik_State_Penalty>
  0.0000

> <r_epik_Charging_Adjusted_Penalty>
0.0125273160554695

> <i_epik_Tot_Q>
1

> <i_epik_Tot_abs_Q>
1

> <i_f3d_flags>
0

> <s_lp_Force_Field>
OPLS_2005

> <r_lp_Energy>
40.432876

> <b_lp_Chiralities_Consistent>
1

> <s_lp_Variant>
4-Anilinoquinazoline-1

> <s_i_glide_gridfile>
struct_1_site_1

> <i_i_glide_lignum>
77

> <i_i_glide_rotatable_bonds>
8

> <r_i_docking_score>
-8.5002037381208

> <r_i_glide_ligand_efficiency>
-0.265631366816275

> <r_i_glide_ligand_efficiency_sa>
-0.843327021265562

> <r_i_glide_ligand_efficiency_ln>
-1.90342732376801

> <r_i_glide_gscore>
-8.5002037381208

> <r_i_glide_lipo>
-3.53981998811376

> <r_i_glide_hbond>
-0.32

> <r_i_glide_metal>
0

> <r_i_glide_rewards>
-1.99477714219449

> <r_i_glide_evdw>
-46.1699981689453

> <r_i_glide_ecoul>
-5.78967618942261

> <r_i_glide_erotb>
0.633002183486577

> <r_i_glide_esite>
-0.101657454438474

> <r_i_glide_emodel>
-55.1345280741682

> <r_i_glide_energy>
-51.9596743583679

> <r_i_glide_einternal>
5.05977869033813

> <i_i_glide_confnum>
103

> <i_i_glide_posenum>
189

> <r_i_glide_eff_state_penalty>
0

> <PMID>
11881999

> <Temp C>
25

> <r_glide_shape_similarity>
0.759004056453705

> <s_m_subgroup_title>
505 training

> <s_m_subgroupid>
pocket_pv

> <b_m_subgroup_collapsed>
0

$$$$
/home/bortolaa/Project/GT/mario-master/ligands/set505ligs_train.sdf:240
                    3D
 Schrodinger Suite 2021-2.
 61 64  0  0  1  0            999 V2000
   18.8776    2.2377   50.9789 C   0  0  0  0  0  0
   18.7463    2.8934   49.6763 C   0  0  0  0  0  0
   17.8809    3.9243   49.5483 C   0  0  0  0  0  0
   17.6843    4.7846   48.3030 C   0  0  0  0  0  0
   18.2909    2.5835   52.0157 O   0  0  0  0  0  0
   19.7542    1.2177   50.9535 N   0  0  0  0  0  0
   17.8879    6.2547   48.5745 N   0  3  0  0  0  0
   17.4873    7.0993   47.3998 C   0  0  0  0  0  0
   17.6284    8.6196   47.6860 C   0  0  0  0  0  0
   19.0479    8.9744   48.1811 C   0  0  0  0  0  0
   19.4225    8.0934   49.3940 C   0  0  0  0  0  0
   19.2703    6.5878   49.0655 C   0  0  0  0  0  0
   21.8005   -1.9005   55.1433 N   0  0  0  0  0  0
   23.0986   -1.7483   55.4144 C   0  0  0  0  0  0
   23.9440   -0.9018   54.8318 N   0  0  0  0  0  0
   23.4408   -0.0987   53.8700 C   0  0  0  0  0  0
   22.0773   -0.1734   53.4969 C   0  0  0  0  0  0
   21.5357    0.6177   52.4610 C   0  0  0  0  0  0
   20.1843    0.4928   52.0983 C   0  0  0  0  0  0
   19.3297   -0.3956   52.8063 C   0  0  0  0  0  0
   19.8932   -1.1996   53.8370 C   0  0  0  0  0  0
   21.2637   -1.1133   54.1828 C   0  0  0  0  0  0
   18.0040   -0.4500   52.4137 O   0  0  0  0  0  0
   17.0798   -1.1717   53.2143 C   0  0  0  0  0  0
   24.2888    0.8505   53.2730 N   0  0  0  0  0  0
   25.6845    0.9504   53.3415 C   0  0  0  0  0  0
   26.5139   -0.1927   53.3347 C   0  0  0  0  0  0
   27.9171   -0.0537   53.3820 C   0  0  0  0  0  0
   28.5029    1.2270   53.4392 C   0  0  0  0  0  0
   27.6774    2.3685   53.4280 C   0  0  0  0  0  0
   26.2749    2.2317   53.3694 C   0  0  0  0  0  0
   28.7437   -1.2466   53.3685 C   0  0  0  0  0  0
   29.3748   -2.2909   53.3677 C   0  0  0  0  0  0
   19.3466    2.5753   48.8336 H   0  0  0  0  0  0
   17.2650    4.2199   50.3896 H   0  0  0  0  0  0
   18.3672    4.4579   47.5151 H   0  0  0  0  0  0
   16.6681    4.6229   47.9389 H   0  0  0  0  0  0
   20.2580    1.0495   50.0920 H   0  0  0  0  0  0
   18.0961    6.8314   46.5356 H   0  0  0  0  0  0
   16.4491    6.8824   47.1412 H   0  0  0  0  0  0
   17.3936    9.1909   46.7865 H   0  0  0  0  0  0
   16.8988    8.9217   48.4382 H   0  0  0  0  0  0
   19.1034   10.0314   48.4503 H   0  0  0  0  0  0
   19.7688    8.8206   47.3746 H   0  0  0  0  0  0
   18.7752    8.3440   50.2369 H   0  0  0  0  0  0
   20.4454    8.3084   49.7104 H   0  0  0  0  0  0
   19.5000    6.0108   49.9635 H   0  0  0  0  0  0
   19.9999    6.2981   48.3063 H   0  0  0  0  0  0
   23.5130   -2.3968   56.1721 H   0  0  0  0  0  0
   22.1594    1.3045   51.9047 H   0  0  0  0  0  0
   19.2844   -1.9067   54.3805 H   0  0  0  0  0  0
   16.0674   -0.9966   52.8506 H   0  0  0  0  0  0
   17.2692   -2.2445   53.1582 H   0  0  0  0  0  0
   17.1164   -0.8654   54.2588 H   0  0  0  0  0  0
   23.8216    1.6256   52.8300 H   0  0  0  0  0  0
   26.0756   -1.1792   53.2903 H   0  0  0  0  0  0
   29.5798    1.3360   53.4808 H   0  0  0  0  0  0
   28.1204    3.3547   53.4618 H   0  0  0  0  0  0
   25.6649    3.1219   53.3597 H   0  0  0  0  0  0
   29.8876   -3.2260   53.3798 H   0  0  0  0  0  0
   17.2449    6.5432   49.3237 H   0  0  0  0  0  0
  1  2  1  0  0  0
  1  5  2  0  0  0
  1  6  1  0  0  0
  2  3  2  0  0  0
  2 34  1  0  0  0
  3  4  1  0  0  0
  3 35  1  0  0  0
  4  7  1  0  0  0
  4 36  1  0  0  0
  4 37  1  0  0  0
  6 19  1  0  0  0
  6 38  1  0  0  0
  7  8  1  0  0  0
  7 12  1  0  0  0
  7 61  1  0  0  0
  8  9  1  0  0  0
  8 39  1  0  0  0
  8 40  1  0  0  0
  9 10  1  0  0  0
  9 41  1  0  0  0
  9 42  1  0  0  0
 10 11  1  0  0  0
 10 43  1  0  0  0
 10 44  1  0  0  0
 11 12  1  0  0  0
 11 45  1  0  0  0
 11 46  1  0  0  0
 12 47  1  0  0  0
 12 48  1  0  0  0
 13 14  1  0  0  0
 13 22  2  0  0  0
 14 15  2  0  0  0
 14 49  1  0  0  0
 15 16  1  0  0  0
 16 17  2  0  0  0
 16 25  1  0  0  0
 17 18  1  0  0  0
 17 22  1  0  0  0
 18 19  2  0  0  0
 18 50  1  0  0  0
 19 20  1  0  0  0
 20 21  2  0  0  0
 20 23  1  0  0  0
 21 22  1  0  0  0
 21 51  1  0  0  0
 23 24  1  0  0  0
 24 52  1  0  0  0
 24 53  1  0  0  0
 24 54  1  0  0  0
 25 26  1  0  0  0
 25 55  1  0  0  0
 26 27  1  0  0  0
 26 31  2  0  0  0
 27 28  2  0  0  0
 27 56  1  0  0  0
 28 29  1  0  0  0
 28 32  1  0  0  0
 29 30  2  0  0  0
 29 57  1  0  0  0
 30 31  1  0  0  0
 30 58  1  0  0  0
 31 59  1  0  0  0
 32 33  3  0  0  0
 33 60  1  0  0  0
M  CHG  1   7   1
M  END
> <s_m_entry_id>
201

> <s_m_entry_name>
pocket_pv.12

> <s_m_Source_Path>
/home/bortolaa/Project/GT/mario-master/docking/set505protein_struct_1_site_1_set505ligs_train

> <s_m_Source_File>
pocket_pv.maegz

> <i_m_Source_File_Index>
12

> <From>
www.bindingDB.org

> <BindingDB Reactant_set_id>
50419137

> <Ligand InChI>
InChI=1S/C26H27N5O2/c1-3-19-9-7-10-20(15-19)29-26-21-16-23(24(33-2)17-22(21)27-18-28-26)30-25(32)11-8-14-31-12-5-4-6-13-31/h1,7-11,15-18H,4-6,12-14H2,2H3,(H,30,32)(H,27,28,29)/b11-8+

> <Ligand InChI Key>
NAVGIMRWOWYNEP-DHZHZOJOSA-N

> <BindingDB MonomerID>
50123163

> <BindingDB Ligand Name>
CHEMBL3622672::US9388160, 12

> <Target Name Assigned by Curator or DataSource>
Epidermal growth factor receptor

> <Target Source Organism According to Curator or DataSource>
Homo sapiens

> <Ki (nM)>


> <Kd (nM)>


> <EC50 (nM)>


> <kon (M-1-s-1)>


> <koff (s-1)>


> <pH>


> <Temp C>


> <Curation/DataSource>
ChEMBL

> <Article DOI>
10.1016/j.ejmech.2015.08.026

> <PubChem AID>


> <Patent Number>


> <Authors>
Zhang, L; Yang, Y; Zhou, H; Zheng, Q; Li, Y; Zheng, S; Zhao, S; Chen, D; Fan, C

> <Institution>
Qilu Pharmaceutical Co, Ltd

> <Link to Ligand in BindingDB>
http://www.bindingdb.org/bind/chemsearch/marvin/MolStructure.jsp?monomerid=50123163

> <Link to Ligand-Target Pair in BindingDB>
http://www.bindingdb.org/jsp/dbsearch/PrimarySearch_ki.jsp?energyterm=kJ/mole&tag=r21&monomerid=50123163&enzyme=Epidermal+growth+factor+receptor&column=ki&startPg=0&Increment=50&submit=Search

> <Ligand HET ID in PDB>


> <PDB ID(s) for Ligand-Target Complex>


> <PubChem CID>
71549099

> <PubChem SID>
321901896

> <ChEBI ID of Ligand>


> <ChEMBL ID of Ligand>
CHEMBL3622672

> <DrugBank ID of Ligand>


> <IUPHAR_GRAC ID of Ligand>


> <KEGG ID of Ligand>


> <ZINC ID of Ligand>


> <Number of Protein Chains in Target (>
1

> <BindingDB Target Chain Sequence>
MRPSGTAGAALLALLAALCPASRALEEKKVCQGTSNKLTQLGTFEDHFLSLQRMFNNCEVVLGNLEITYVQRNYDLSFLKTIQEVAGYVLIALNTVERIPLENLQIIRGNMYYENSYALAVLSNYDANKTGLKELPMRNLQEILHGAVRFSNNPALCNVESIQWRDIVSSDFLSNMSMDFQNHLGSCQKCDPSCPNGSCWGAGEENCQKLTKIICAQQCSGRCRGKSPSDCCHNQCAAGCTGPRESDCLVCRKFRDEATCKDTCPPLMLYNPTTYQMDVNPEGKYSFGATCVKKCPRNYVVTDHGSCVRACGADSYEMEEDGVRKCKKCEGPCRKVCNGIGIGEFKDSLSINATNIKHFKNCTSISGDLHILPVAFRGDSFTHTPPLDPQELDILKTVKEITGFLLIQAWPENRTDLHAFENLEIIRGRTKQHGQFSLAVVSLNITSLGLRSLKEISDGDVIISGNKNLCYANTINWKKLFGTSGQKTKIISNRGENSCKATGQVCHALCSPEGCWGPEPRDCVSCRNVSRGRECVDKCNLLEGEPREFVENSECIQCHPECLPQAMNITCTGRGPDNCIQCAHYIDGPHCVKTCPAGVMGENNTLVWKYADAGHVCHLCHPNCTYGCTGPGLEGCPTNGPKIPSIATGMVGALLLLLVVALGIGLFMRRRHIVRKRTLRRLLQERELVEPLTPSGEAPNQALLRILKETEFKKIKVLGSGAFGTVYKGLWIPEGEKVKIPVAIKELREATSPKANKEILDEAYVMASVDNPHVCRLLGICLTSTVQLITQLMPFGCLLDYVREHKDNIGSQYLLNWCVQIAKGMNYLEDRRLVHRDLAARNVLVKTPQHVKITDFGLAKLLGAEEKEYHAEGGKVPIKWMALESILHRIYTHQSDVWSYGVTVWELMTFGSKPYDGIPASEISSILEKGERLPQPPICTIDVYMIMVKCWMIDADSRPKFRELIIEFSKMARDPQRYLVIQGDERMHLPSPTDSNFYRALMDEEDMDDVVDADEYLIPQQGFFSSPSTSRTPLLSSLSATSNNSTVACIDRNGLQSCPIKEDSFLQRYSSDPTGALTEDSIDDTFLPVPEYINQSVPKRPAGSVQNPVYHNQPLNPAPSRDPHYQDPHSTAVGNPEYLNTVQPTCVNSTFDSPAHWAQKGSHQISLDNPDYQQDFFPKEAKPNGIFKGSTAENAEYLRVAPQSSEFIGA

> <PDB ID(s) of Target Chain>
1IVO,1M14,1M17,1MOX,1XKK,1Z9I,2GS2,2GS6,2ITW,2ITX,2ITY,2J5E,2J5F,2J6M,2RF9,2RGP,3B2V,3BEL,3GOP,3POZ,3QWQ,3VJO,3W2O,3W2P,3W2Q,3W2R,3W2S,3W32,3W33,4G5J,4I23,4JQ7,4JQ8,4JR3,4JRV,4KRO,4LI5,4RJ4,4RJ5,4RJ6,4RJ7,4RJ8,4TKS,4UIP,4UV7,4WKQ,4WRG,4ZAU,5C8K,5C8M,5C8N,5CAL,5CAN,5CAO,5CAP,5CAQ,5CAS,5CAU,5CAV,5EDP,5EDQ,5EDR,5EM5,5EM6,5EM7,5EM8,5FED,5GNK,5HCX,5HCY,5HCZ,5HIB,5HIC,5UGB,5WB7,5WB8,5Y25,6S89,6S8A

> <UniProt (SwissProt) Recommended Name of Target Chain>
Epidermal growth factor receptor

> <UniProt (SwissProt) Entry Name of Target Chain>
EGFR_HUMAN

> <UniProt (SwissProt) Primary ID of Target Chain>
P00533

> <UniProt (SwissProt) Secondary ID(s) of Target Chain>
O00688,O00732,P06268,Q14225,Q68GS5,Q92795,Q9BZS2,Q9GZX1,Q9H2C9,Q9H3C9,Q9UMD7,Q9UMD8,Q9UMG5

> <UniProt (SwissProt) Alternative ID(s) of Target Chain>


> <UniProt (TrEMBL) Submitted Name of Target Chain>


> <UniProt (TrEMBL) Entry Name of Target Chain>


> <UniProt (TrEMBL) Primary ID of Target Chain>


> <UniProt (TrEMBL) Secondary ID(s) of Target Chain>


> <UniProt (TrEMBL) Alternative ID(s) of Target Chain>


> <training label>
8.56864

> <i_lp_mmshare_version>
54117

> <s_epik_input>
W0NIMl0xW0NIMl1bQ0gyXVtDSDJdW0NIMl1OMVtDSDJdXFtDSF09W0NIXVxDKD1PKVtOSF1jKFtjSF0yKWMoT1tDSDNdKVtjSF1jKGMyMyluW2NIXW5jM1tOSF1jNFtjSF1jKEMjW0NIXSlbY0hdW2NIXVtjSF00

> <s_epik_cmdline>
J2VwaWtfcHl0aG9uJywgJy1waHQnLCAnMC4xJywgJy1waCcsICc3LjQnLCAnLXRuJywgJzgnLCAnLW1hJywgJzIwMCcsICctaW1hZScsICc8aW5maWxlLm1hZT4nLCAnLW9tYWUnLCAnPG91dGZpbGUubWFlPic=

> <r_lp_tautomer_probability>
0.999978000241998

> <r_epik_Ionization_Penalty>
  0.1963

> <r_epik_Ionization_Penalty_Charging>
  0.1960

> <r_epik_Ionization_Penalty_Neutral>
  0.0003

> <r_epik_State_Penalty>
  0.1858

> <r_epik_Charging_Adjusted_Penalty>
0.381771964848409

> <i_epik_Tot_Q>
1

> <i_epik_Tot_abs_Q>
1

> <i_f3d_flags>
0

> <s_lp_Force_Field>
OPLS_2005

> <r_lp_Energy>
31.584796

> <b_lp_Chiralities_Consistent>
1

> <s_lp_Variant>
/home/bortolaa/Project/GT/mario-master/ligands/set505ligs_train.sdf:240-1

> <s_i_glide_gridfile>
struct_1_site_1

> <i_i_glide_lignum>
267

> <i_i_glide_rotatable_bonds>
9

> <r_i_docking_score>
-8.49806715654656

> <r_i_glide_ligand_efficiency>
-0.257517186562017

> <r_i_glide_ligand_efficiency_sa>
-0.82599521549891

> <r_i_glide_ligand_efficiency_ln>
-1.88992613497908

> <r_i_glide_gscore>
-8.68386715654656

> <r_i_glide_lipo>
-3.12728905430779

> <r_i_glide_hbond>
-0.52

> <r_i_glide_metal>
0

> <r_i_glide_rewards>
-1.6022918304516

> <r_i_glide_evdw>
-46.1354446411133

> <r_i_glide_ecoul>
-11.7161645889282

> <r_i_glide_erotb>
0.714319693479398

> <r_i_glide_esite>
-0.0844090448716617

> <r_i_glide_emodel>
-63.340160966905

> <r_i_glide_energy>
-57.8516092300415

> <r_i_glide_einternal>
8.20355701446533

> <i_i_glide_confnum>
2

> <i_i_glide_posenum>
173

> <r_i_glide_eff_state_penalty>
0.1858

> <IC50 (nM)>
2.7

> <PMID>
26310890

> <r_glide_shape_similarity>
0.734683513641357

> <s_m_subgroup_title>
505 training

> <s_m_subgroupid>
pocket_pv

> <b_m_subgroup_collapsed>
0

$$$$
Anilinoquinazoline
                    3D
 Schrodinger Suite 2021-2.
 54 57  0  0  1  0            999 V2000
   21.5798    0.6873   52.4458 C   0  0  0  0  0  0
   20.2294    0.5672   52.0415 C   0  0  0  0  0  0
   19.3804   -0.3453   52.7048 C   0  0  0  0  0  0
   19.8754   -1.1368   53.7759 C   0  0  0  0  0  0
   22.0887   -0.1263   53.4842 C   0  0  0  0  0  0
   21.2385   -1.0498   54.1635 C   0  0  0  0  0  0
   23.4568   -0.0992   53.8719 C   0  0  0  0  0  0
   21.7371   -1.8393   55.1422 N   0  0  0  0  0  0
   25.8246    0.4835   53.2553 C   0  0  0  0  0  0
   28.1416    1.2673   53.5269 C   0  0  0  0  0  0
   26.3237   -0.8400   53.1257 C   0  0  0  0  0  0
   27.6974   -1.1224   53.2503 C   0  0  0  0  0  0
   24.4292    0.7215   53.2555 N   0  0  0  0  0  0
   24.1183    1.6177   52.9074 H   0  0  0  0  0  0
   18.1227   -0.4601   52.1557 O   0  0  0  0  0  0
   28.6044   -0.0720   53.4722 C   0  0  0  0  0  0
   26.7540    1.5420   53.4167 C   0  0  0  0  0  0
   16.9980   -0.6352   52.9921 C   0  0  0  0  0  0
   26.3084    2.8153   53.5144 F   0  0  0  0  0  0
   30.2701   -0.4664   53.7071 Cl  0  0  0  0  0  0
   19.6694    1.2933   51.0073 O   0  0  0  0  0  0
   20.5258    1.7686   49.9722 C   0  0  0  0  0  0
   23.0292   -1.7055   55.4463 C   0  0  0  0  0  0
   23.9050   -0.9007   54.8626 N   0  0  0  0  0  0
   15.7918   -0.1274   52.1721 C   0  0  0  0  0  0
   14.5412   -0.0997   52.9442 N   0  0  0  0  0  0
   13.9435   -1.4012   53.2513 C   0  0  0  0  0  0
   13.6534    1.0032   52.7919 C   0  0  0  0  0  0
   14.1356    2.3320   52.5771 C   0  0  0  0  0  0
   13.2268    3.4041   52.3567 C   0  0  0  0  0  0
   11.3690    1.9336   52.5968 C   0  0  0  0  0  0
   12.2324    0.8316   52.8257 C   0  0  0  0  0  0
   11.8893    3.1663   52.3596 N   0  3  0  0  0  0
   22.2359    1.3844   51.9454 H   0  0  0  0  0  0
   19.2263   -1.8444   54.2709 H   0  0  0  0  0  0
   28.8386    2.0765   53.6868 H   0  0  0  0  0  0
   25.6456   -1.6651   52.9698 H   0  0  0  0  0  0
   28.0430   -2.1447   53.1935 H   0  0  0  0  0  0
   17.0977   -0.0661   53.9101 H   0  0  0  0  0  0
   16.8991   -1.6875   53.2599 H   0  0  0  0  0  0
   19.9225    2.1173   49.1339 H   0  0  0  0  0  0
   21.1368    2.6065   50.3145 H   0  0  0  0  0  0
   21.1833    0.9777   49.6036 H   0  0  0  0  0  0
   23.4131   -2.3541   56.2169 H   0  0  0  0  0  0
   15.6475   -0.7845   51.3128 H   0  0  0  0  0  0
   16.0382    0.8432   51.7479 H   0  0  0  0  0  0
   13.2866   -1.7259   52.4445 H   0  0  0  0  0  0
   14.7014   -2.1744   53.3720 H   0  0  0  0  0  0
   13.3654   -1.3520   54.1748 H   0  0  0  0  0  0
   15.1905    2.5499   52.5757 H   0  0  0  0  0  0
   13.5259    4.4253   52.1670 H   0  0  0  0  0  0
   10.2871    1.8736   52.5808 H   0  0  0  0  0  0
   11.7787   -0.1316   52.9963 H   0  0  0  0  0  0
   11.2224    3.9352   52.1722 H   0  0  0  0  0  0
  1  2  1  0  0  0
  1  5  2  0  0  0
  1 34  1  0  0  0
  2  3  2  0  0  0
  2 21  1  0  0  0
  3  4  1  0  0  0
  3 15  1  0  0  0
  4  6  2  0  0  0
  4 35  1  0  0  0
  5  6  1  0  0  0
  5  7  1  0  0  0
  6  8  1  0  0  0
  7 13  1  0  0  0
  7 24  2  0  0  0
  8 23  2  0  0  0
  9 11  1  0  0  0
  9 13  1  0  0  0
  9 17  2  0  0  0
 10 16  2  0  0  0
 10 17  1  0  0  0
 10 36  1  0  0  0
 11 12  2  0  0  0
 11 37  1  0  0  0
 12 16  1  0  0  0
 12 38  1  0  0  0
 13 14  1  0  0  0
 15 18  1  0  0  0
 16 20  1  0  0  0
 17 19  1  0  0  0
 18 25  1  0  0  0
 18 39  1  0  0  0
 18 40  1  0  0  0
 21 22  1  0  0  0
 22 41  1  0  0  0
 22 42  1  0  0  0
 22 43  1  0  0  0
 23 24  1  0  0  0
 23 44  1  0  0  0
 25 26  1  0  0  0
 25 45  1  0  0  0
 25 46  1  0  0  0
 26 27  1  0  0  0
 26 28  1  0  0  0
 27 47  1  0  0  0
 27 48  1  0  0  0
 27 49  1  0  0  0
 28 29  1  0  0  0
 28 32  2  0  0  0
 29 30  2  0  0  0
 29 50  1  0  0  0
 30 33  1  0  0  0
 30 51  1  0  0  0
 31 32  1  0  0  0
 31 33  2  0  0  0
 31 52  1  0  0  0
 32 53  1  0  0  0
 33 54  1  0  0  0
M  CHG  1  33   1
M  END
> <s_m_entry_id>
202

> <s_m_entry_name>
pocket_pv.13

> <s_m_Source_Path>
/home/bortolaa/Project/GT/mario-master/docking/set505protein_struct_1_site_1_set505ligs_train

> <s_m_Source_File>
pocket_pv.maegz

> <i_m_Source_File_Index>
13

> <From>
www.bindingDB.org

> <BindingDB Reactant_set_id>
7080

> <Ligand InChI>
InChI=1S/C23H21ClFN5O2/c1-30(16-5-7-26-8-6-16)9-10-32-22-13-20-17(12-21(22)31-2)23(28-14-27-20)29-19-4-3-15(24)11-18(19)25/h3-8,11-14H,9-10H2,1-2H3,(H,27,28,29)

> <Ligand InChI Key>
HTZZYCNEQVCJJB-UHFFFAOYSA-N

> <BindingDB MonomerID>
4645

> <BindingDB Ligand Name>
4-Anilinoquinazoline 13::Anilinoquinazoline deriv. 28::N-(4-chloro-2-fluorophenyl)-6-methoxy-7-{2-[methyl(pyridin-4-yl)amino]ethoxy}quinazolin-4-amine

> <Target Name Assigned by Curator or DataSource>
Epidermal growth factor receptor

> <Target Source Organism According to Curator or DataSource>
Homo sapiens

> <Ki (nM)>


> <Kd (nM)>


> <EC50 (nM)>


> <kon (M-1-s-1)>


> <koff (s-1)>


> <pH>


> <Curation/DataSource>
Curated from the literature by BindingDB

> <Article DOI>
10.1021/jm011022e

> <PubChem AID>


> <Patent Number>


> <Authors>
Hennequin, LF; Stokes, ES; Thomas, AP; Johnstone, C; Ple, PA; Ogilvie, DJ; Dukes, M; Wedge, SR; Kendrew, J; Curwen, JO

> <Institution>
AstraZeneca

> <Link to Ligand in BindingDB>
http://www.bindingdb.org/bind/chemsearch/marvin/MolStructure.jsp?monomerid=4645

> <Link to Ligand-Target Pair in BindingDB>
http://www.bindingdb.org/jsp/dbsearch/PrimarySearch_ki.jsp?energyterm=kJ/mole&tag=r21&monomerid=4645&enzyme=Epidermal+growth+factor+receptor&column=ki&startPg=0&Increment=50&submit=Search

> <Ligand HET ID in PDB>


> <PDB ID(s) for Ligand-Target Complex>


> <PubChem CID>
5329026

> <PubChem SID>
8034308

> <ChEBI ID of Ligand>


> <ChEMBL ID of Ligand>


> <DrugBank ID of Ligand>


> <IUPHAR_GRAC ID of Ligand>


> <KEGG ID of Ligand>


> <ZINC ID of Ligand>
ZINC13472787

> <Number of Protein Chains in Target (>
1

> <BindingDB Target Chain Sequence>
MRPSGTAGAALLALLAALCPASRALEEKKVCQGTSNKLTQLGTFEDHFLSLQRMFNNCEVVLGNLEITYVQRNYDLSFLKTIQEVAGYVLIALNTVERIPLENLQIIRGNMYYENSYALAVLSNYDANKTGLKELPMRNLQEILHGAVRFSNNPALCNVESIQWRDIVSSDFLSNMSMDFQNHLGSCQKCDPSCPNGSCWGAGEENCQKLTKIICAQQCSGRCRGKSPSDCCHNQCAAGCTGPRESDCLVCRKFRDEATCKDTCPPLMLYNPTTYQMDVNPEGKYSFGATCVKKCPRNYVVTDHGSCVRACGADSYEMEEDGVRKCKKCEGPCRKVCNGIGIGEFKDSLSINATNIKHFKNCTSISGDLHILPVAFRGDSFTHTPPLDPQELDILKTVKEITGFLLIQAWPENRTDLHAFENLEIIRGRTKQHGQFSLAVVSLNITSLGLRSLKEISDGDVIISGNKNLCYANTINWKKLFGTSGQKTKIISNRGENSCKATGQVCHALCSPEGCWGPEPRDCVSCRNVSRGRECVDKCNLLEGEPREFVENSECIQCHPECLPQAMNITCTGRGPDNCIQCAHYIDGPHCVKTCPAGVMGENNTLVWKYADAGHVCHLCHPNCTYGCTGPGLEGCPTNGPKIPSIATGMVGALLLLLVVALGIGLFMRRRHIVRKRTLRRLLQERELVEPLTPSGEAPNQALLRILKETEFKKIKVLGSGAFGTVYKGLWIPEGEKVKIPVAIKELREATSPKANKEILDEAYVMASVDNPHVCRLLGICLTSTVQLITQLMPFGCLLDYVREHKDNIGSQYLLNWCVQIAKGMNYLEDRRLVHRDLAARNVLVKTPQHVKITDFGLAKLLGAEEKEYHAEGGKVPIKWMALESILHRIYTHQSDVWSYGVTVWELMTFGSKPYDGIPASEISSILEKGERLPQPPICTIDVYMIMVKCWMIDADSRPKFRELIIEFSKMARDPQRYLVIQGDERMHLPSPTDSNFYRALMDEEDMDDVVDADEYLIPQQGFFSSPSTSRTPLLSSLSATSNNSTVACIDRNGLQSCPIKEDSFLQRYSSDPTGALTEDSIDDTFLPVPEYINQSVPKRPAGSVQNPVYHNQPLNPAPSRDPHYQDPHSTAVGNPEYLNTVQPTCVNSTFDSPAHWAQKGSHQISLDNPDYQQDFFPKEAKPNGIFKGSTAENAEYLRVAPQSSEFIGA

> <PDB ID(s) of Target Chain>
1IVO,1M14,1M17,1MOX,1XKK,1Z9I,2GS2,2GS6,2ITW,2ITX,2ITY,2J5E,2J5F,2J6M,2RF9,2RGP,3B2V,3BEL,3GOP,3POZ,3QWQ,3VJO,3W2O,3W2P,3W2Q,3W2R,3W2S,3W32,3W33,4G5J,4I23,4JQ7,4JQ8,4JR3,4JRV,4KRO,4LI5,4RJ4,4RJ5,4RJ6,4RJ7,4RJ8,4TKS,4UIP,4UV7,4WKQ,4WRG,4ZAU,5C8K,5C8M,5C8N,5CAL,5CAN,5CAO,5CAP,5CAQ,5CAS,5CAU,5CAV,5EDP,5EDQ,5EDR,5EM5,5EM6,5EM7,5EM8,5FED,5GNK,5HCX,5HCY,5HCZ,5HIB,5HIC,5UGB,5WB7,5WB8,5Y25,6S89,6S8A

> <UniProt (SwissProt) Recommended Name of Target Chain>
Epidermal growth factor receptor

> <UniProt (SwissProt) Entry Name of Target Chain>
EGFR_HUMAN

> <UniProt (SwissProt) Primary ID of Target Chain>
P00533

> <UniProt (SwissProt) Secondary ID(s) of Target Chain>
O00688,O00732,P06268,Q14225,Q68GS5,Q92795,Q9BZS2,Q9GZX1,Q9H2C9,Q9H3C9,Q9UMD7,Q9UMD8,Q9UMG5

> <UniProt (SwissProt) Alternative ID(s) of Target Chain>


> <UniProt (TrEMBL) Submitted Name of Target Chain>


> <UniProt (TrEMBL) Entry Name of Target Chain>


> <UniProt (TrEMBL) Primary ID of Target Chain>


> <UniProt (TrEMBL) Secondary ID(s) of Target Chain>


> <UniProt (TrEMBL) Alternative ID(s) of Target Chain>


> <training label>
6.52288

> <i_lp_mmshare_version>
54117

> <s_epik_input>
W2NIXTFbY0hdbltjSF1bY0hdYzFOKFtDSDNdKVtDSDJdW0NIMl1PYyhjKFtjSF0yKU9bQ0gzXSlbY0hdYyhjMjMpbltjSF1uYzNbTkhdYzRbY0hdW2NIXWMoQ2wpW2NIXWM0Rg==

> <s_epik_cmdline>
J2VwaWtfcHl0aG9uJywgJy1waHQnLCAnMC4xJywgJy1waCcsICc3LjQnLCAnLXRuJywgJzgnLCAnLW1hJywgJzIwMCcsICctaW1hZScsICc8aW5maWxlLm1hZT4nLCAnLW9tYWUnLCAnPG91dGZpbGUubWFlPic=

> <r_lp_tautomer_probability>
1

> <r_epik_Ionization_Penalty>
  0.0043

> <r_epik_Ionization_Penalty_Charging>
  0.0035

> <r_epik_Ionization_Penalty_Neutral>
  0.0009

> <r_epik_State_Penalty>
  0.0000

> <r_epik_Charging_Adjusted_Penalty>
0.00345982690423576

> <i_epik_Tot_Q>
1

> <i_epik_Tot_abs_Q>
1

> <i_f3d_flags>
0

> <s_lp_Force_Field>
OPLS_2005

> <r_lp_Energy>
28.557701

> <b_lp_Chiralities_Consistent>
1

> <s_lp_Variant>
Anilinoquinazoline-1

> <s_i_glide_gridfile>
struct_1_site_1

> <i_i_glide_lignum>
119

> <i_i_glide_rotatable_bonds>
8

> <r_i_docking_score>
-8.47501941996065

> <r_i_glide_ligand_efficiency>
-0.26484435687377

> <r_i_glide_ligand_efficiency_sa>
-0.840828420447166

> <r_i_glide_ligand_efficiency_ln>
-1.89778786843337

> <r_i_glide_gscore>
-8.47501941996065

> <r_i_glide_lipo>
-3.48529156199344

> <r_i_glide_hbond>
-0.52

> <r_i_glide_metal>
0

> <r_i_glide_rewards>
-1.48854252638448

> <r_i_glide_evdw>
-45.4670524597168

> <r_i_glide_ecoul>
-7.36835765838623

> <r_i_glide_erotb>
0.58234373257016

> <r_i_glide_esite>
-0.184922792409122

> <r_i_glide_emodel>
-58.0682547692149

> <r_i_glide_energy>
-52.835410118103

> <r_i_glide_einternal>
5.75535011291504

> <i_i_glide_confnum>
2

> <i_i_glide_posenum>
153

> <r_i_glide_eff_state_penalty>
0

> <IC50 (nM)>
300

> <PMID>
11881999

> <Temp C>
25

> <r_glide_shape_similarity>
0.754167020320892

> <s_m_subgroup_title>
505 training

> <s_m_subgroupid>
pocket_pv

> <b_m_subgroup_collapsed>
0

$$$$
BindingDB_50291116_mol_1
                    3D
 Schrodinger Suite 2021-2.
 42 44  0  0  1  0            999 V2000
   22.0905   -0.1783   53.4687 C   0  0  0  0  0  0
   23.4557   -0.0886   53.8576 C   0  0  0  0  0  0
   24.4022    0.8140   53.3059 N   0  0  0  0  0  0
   21.2765   -1.0965   54.1714 C   0  0  0  0  0  0
   21.5341    0.5616   52.4084 C   0  0  0  0  0  0
   23.9215   -0.8783   54.8413 N   0  0  0  0  0  0
   19.9124   -1.1933   53.8429 C   0  0  0  0  0  0
   20.1648    0.4787   52.1024 C   0  0  0  0  0  0
   19.3405   -0.3857   52.8366 C   0  0  0  0  0  0
   21.7964   -1.8740   55.1363 N   0  0  0  0  0  0
   25.8063    0.6257   53.2889 C   0  0  0  0  0  0
   23.0830   -1.7209   55.4133 C   0  0  0  0  0  0
   26.3038   -0.6799   53.1189 C   0  0  0  0  0  0
   26.7540    1.6713   53.4350 C   0  0  0  0  0  0
   19.5795    1.2075   51.0958 O   0  0  0  0  0  0
   18.0113   -0.3892   52.4847 O   0  0  0  0  0  0
   28.1304    1.3877   53.4865 C   0  0  0  0  0  0
   27.6702   -0.9712   53.1865 C   0  0  0  0  0  0
   28.5839    0.0620   53.3845 C   0  0  0  0  0  0
   24.0056    2.2119   53.3109 C   0  0  0  0  0  0
   30.0489   -0.2783   53.4731 C   0  0  0  0  0  0
   17.1097   -1.1348   53.2715 C   0  0  0  0  0  0
   20.3836    1.5633   49.9852 C   0  0  0  0  0  0
   22.1640    1.2005   51.8121 H   0  0  0  0  0  0
   19.3091   -1.8858   54.4085 H   0  0  0  0  0  0
   23.4919   -2.3649   56.1759 H   0  0  0  0  0  0
   25.6204   -1.4978   52.9563 H   0  0  0  0  0  0
   26.4658    2.7065   53.5372 H   0  0  0  0  0  0
   28.8371    2.1946   53.6235 H   0  0  0  0  0  0
   28.0087   -1.9928   53.0870 H   0  0  0  0  0  0
   22.9319    2.3380   53.3744 H   0  0  0  0  0  0
   24.4292    2.7380   54.1679 H   0  0  0  0  0  0
   24.3394    2.7098   52.3991 H   0  0  0  0  0  0
   30.2461   -0.8672   54.3705 H   0  0  0  0  0  0
   30.6694    0.6207   53.5154 H   0  0  0  0  0  0
   30.3548   -0.8700   52.6079 H   0  0  0  0  0  0
   16.0895   -0.9386   52.9436 H   0  0  0  0  0  0
   17.2918   -2.2049   53.1672 H   0  0  0  0  0  0
   17.1732   -0.8671   54.3266 H   0  0  0  0  0  0
   19.7419    1.8926   49.1676 H   0  0  0  0  0  0
   21.0537    2.3877   50.2287 H   0  0  0  0  0  0
   20.9706    0.7178   49.6230 H   0  0  0  0  0  0
  1  2  2  0  0  0
  1  4  1  0  0  0
  1  5  1  0  0  0
  2  3  1  0  0  0
  2  6  1  0  0  0
  3 11  1  0  0  0
  3 20  1  0  0  0
  4  7  1  0  0  0
  4 10  2  0  0  0
  5  8  2  0  0  0
  5 24  1  0  0  0
  6 12  2  0  0  0
  7  9  2  0  0  0
  7 25  1  0  0  0
  8  9  1  0  0  0
  8 15  1  0  0  0
  9 16  1  0  0  0
 10 12  1  0  0  0
 11 13  2  0  0  0
 11 14  1  0  0  0
 12 26  1  0  0  0
 13 18  1  0  0  0
 13 27  1  0  0  0
 14 17  2  0  0  0
 14 28  1  0  0  0
 15 23  1  0  0  0
 16 22  1  0  0  0
 17 19  1  0  0  0
 17 29  1  0  0  0
 18 19  2  0  0  0
 18 30  1  0  0  0
 19 21  1  0  0  0
 20 31  1  0  0  0
 20 32  1  0  0  0
 20 33  1  0  0  0
 21 34  1  0  0  0
 21 35  1  0  0  0
 21 36  1  0  0  0
 22 37  1  0  0  0
 22 38  1  0  0  0
 22 39  1  0  0  0
 23 40  1  0  0  0
 23 41  1  0  0  0
 23 42  1  0  0  0
M  END
> <s_m_entry_id>
203

> <s_m_entry_name>
pocket_pv.14

> <s_m_Source_Path>
/home/bortolaa/Project/GT/mario-master/docking/set505protein_struct_1_site_1_set505ligs_train

> <s_m_Source_File>
pocket_pv.maegz

> <i_m_Source_File_Index>
14

> <From>
www.bindingDB.org

> <BindingDB Reactant_set_id>
50486150

> <Ligand InChI>
InChI=1S/C18H19N3O2/c1-12-5-7-13(8-6-12)21(2)18-14-9-16(22-3)17(23-4)10-15(14)19-11-20-18/h5-11H,1-4H3

> <Ligand InChI Key>
VBBBOIRANCCNDA-UHFFFAOYSA-N

> <BindingDB MonomerID>
50291116

> <BindingDB Ligand Name>
(6,7-Dimethoxy-quinazolin-4-yl)-methyl-p-tolyl-amine; hydrochloride::CHEMBL545538

> <Target Name Assigned by Curator or DataSource>
Epidermal growth factor receptor

> <Target Source Organism According to Curator or DataSource>
Homo sapiens

> <Ki (nM)>


> <IC50 (nM)>
4000

> <Kd (nM)>


> <EC50 (nM)>


> <kon (M-1-s-1)>


> <koff (s-1)>


> <pH>


> <Temp C>


> <Curation/DataSource>
ChEMBL

> <Article DOI>
10.1016/S0960-894X(97)00035-8

> <PMID>


> <PubChem AID>


> <Patent Number>


> <Authors>
Myers, MR; Setzer, NN; Spada, AP; Persons, PE; Ly, CQ; Maguire, MP; Zulli, AL; Cheney, DL; Zilberstein, A; Johnson, SE; Franks, CF; Mitchell, KJ

> <Institution>
TBA

> <Link to Ligand in BindingDB>
http://www.bindingdb.org/bind/chemsearch/marvin/MolStructure.jsp?monomerid=50291116

> <Link to Ligand-Target Pair in BindingDB>
http://www.bindingdb.org/jsp/dbsearch/PrimarySearch_ki.jsp?energyterm=kJ/mole&tag=r21&monomerid=50291116&enzyme=Epidermal+growth+factor+receptor&column=ki&startPg=0&Increment=50&submit=Search

> <Ligand HET ID in PDB>


> <PDB ID(s) for Ligand-Target Complex>


> <PubChem CID>
17938625

> <PubChem SID>
104132668

> <ChEBI ID of Ligand>


> <ChEMBL ID of Ligand>
CHEMBL545538

> <DrugBank ID of Ligand>


> <IUPHAR_GRAC ID of Ligand>


> <KEGG ID of Ligand>


> <ZINC ID of Ligand>
ZINC27426793

> <Number of Protein Chains in Target (>
1

> <BindingDB Target Chain Sequence>
MRPSGTAGAALLALLAALCPASRALEEKKVCQGTSNKLTQLGTFEDHFLSLQRMFNNCEVVLGNLEITYVQRNYDLSFLKTIQEVAGYVLIALNTVERIPLENLQIIRGNMYYENSYALAVLSNYDANKTGLKELPMRNLQEILHGAVRFSNNPALCNVESIQWRDIVSSDFLSNMSMDFQNHLGSCQKCDPSCPNGSCWGAGEENCQKLTKIICAQQCSGRCRGKSPSDCCHNQCAAGCTGPRESDCLVCRKFRDEATCKDTCPPLMLYNPTTYQMDVNPEGKYSFGATCVKKCPRNYVVTDHGSCVRACGADSYEMEEDGVRKCKKCEGPCRKVCNGIGIGEFKDSLSINATNIKHFKNCTSISGDLHILPVAFRGDSFTHTPPLDPQELDILKTVKEITGFLLIQAWPENRTDLHAFENLEIIRGRTKQHGQFSLAVVSLNITSLGLRSLKEISDGDVIISGNKNLCYANTINWKKLFGTSGQKTKIISNRGENSCKATGQVCHALCSPEGCWGPEPRDCVSCRNVSRGRECVDKCNLLEGEPREFVENSECIQCHPECLPQAMNITCTGRGPDNCIQCAHYIDGPHCVKTCPAGVMGENNTLVWKYADAGHVCHLCHPNCTYGCTGPGLEGCPTNGPKIPSIATGMVGALLLLLVVALGIGLFMRRRHIVRKRTLRRLLQERELVEPLTPSGEAPNQALLRILKETEFKKIKVLGSGAFGTVYKGLWIPEGEKVKIPVAIKELREATSPKANKEILDEAYVMASVDNPHVCRLLGICLTSTVQLITQLMPFGCLLDYVREHKDNIGSQYLLNWCVQIAKGMNYLEDRRLVHRDLAARNVLVKTPQHVKITDFGLAKLLGAEEKEYHAEGGKVPIKWMALESILHRIYTHQSDVWSYGVTVWELMTFGSKPYDGIPASEISSILEKGERLPQPPICTIDVYMIMVKCWMIDADSRPKFRELIIEFSKMARDPQRYLVIQGDERMHLPSPTDSNFYRALMDEEDMDDVVDADEYLIPQQGFFSSPSTSRTPLLSSLSATSNNSTVACIDRNGLQSCPIKEDSFLQRYSSDPTGALTEDSIDDTFLPVPEYINQSVPKRPAGSVQNPVYHNQPLNPAPSRDPHYQDPHSTAVGNPEYLNTVQPTCVNSTFDSPAHWAQKGSHQISLDNPDYQQDFFPKEAKPNGIFKGSTAENAEYLRVAPQSSEFIGA

> <PDB ID(s) of Target Chain>
1IVO,1M14,1M17,1MOX,1XKK,1Z9I,2GS2,2GS6,2ITW,2ITX,2ITY,2J5E,2J5F,2J6M,2RF9,2RGP,3B2V,3BEL,3GOP,3POZ,3QWQ,3VJO,3W2O,3W2P,3W2Q,3W2R,3W2S,3W32,3W33,4G5J,4I23,4JQ7,4JQ8,4JR3,4JRV,4KRO,4LI5,4RJ4,4RJ5,4RJ6,4RJ7,4RJ8,4TKS,4UIP,4UV7,4WKQ,4WRG,4ZAU,5C8K,5C8M,5C8N,5CAL,5CAN,5CAO,5CAP,5CAQ,5CAS,5CAU,5CAV,5EDP,5EDQ,5EDR,5EM5,5EM6,5EM7,5EM8,5FED,5GNK,5HCX,5HCY,5HCZ,5HIB,5HIC,5UGB,5WB7,5WB8,5Y25,6S89,6S8A

> <UniProt (SwissProt) Recommended Name of Target Chain>
Epidermal growth factor receptor

> <UniProt (SwissProt) Entry Name of Target Chain>
EGFR_HUMAN

> <UniProt (SwissProt) Primary ID of Target Chain>
P00533

> <UniProt (SwissProt) Secondary ID(s) of Target Chain>
O00688,O00732,P06268,Q14225,Q68GS5,Q92795,Q9BZS2,Q9GZX1,Q9H2C9,Q9H3C9,Q9UMD7,Q9UMD8,Q9UMG5

> <UniProt (SwissProt) Alternative ID(s) of Target Chain>


> <UniProt (TrEMBL) Submitted Name of Target Chain>


> <UniProt (TrEMBL) Entry Name of Target Chain>


> <UniProt (TrEMBL) Primary ID of Target Chain>


> <UniProt (TrEMBL) Secondary ID(s) of Target Chain>


> <UniProt (TrEMBL) Alternative ID(s) of Target Chain>


> <training label>
5.39794

> <i_lp_mmshare_version>
54117

> <s_epik_input>
W0NIM11PYyhbY0hdMSljKE9bQ0gzXSlbY0hdYyhjMTIpbltjSF1uYzJOKFtDSDNdKWMzW2NIXVtjSF1jKFtDSDNdKVtjSF1bY0hdMw==

> <s_epik_cmdline>
J2VwaWtfcHl0aG9uJywgJy1waHQnLCAnMC4xJywgJy1waCcsICc3LjQnLCAnLXRuJywgJzgnLCAnLW1hJywgJzIwMCcsICctaW1hZScsICc8aW5maWxlLm1hZT4nLCAnLW9tYWUnLCAnPG91dGZpbGUubWFlPic=

> <r_lp_tautomer_probability>
1

> <r_epik_Ionization_Penalty>
  0.0010

> <r_epik_Ionization_Penalty_Charging>
  0.0000

> <r_epik_Ionization_Penalty_Neutral>
  0.0010

> <r_epik_State_Penalty>
  0.0000

> <r_epik_Charging_Adjusted_Penalty>
0

> <i_epik_Tot_Q>
0

> <i_epik_Tot_abs_Q>
0

> <i_f3d_flags>
0

> <s_lp_Force_Field>
OPLS_2005

> <r_lp_Energy>
22.887682

> <b_lp_Chiralities_Consistent>
1

> <s_lp_Variant>
BindingDB_50291116_mol_1-1

> <s_i_glide_gridfile>
struct_1_site_1

> <i_i_glide_lignum>
46

> <i_i_glide_rotatable_bonds>
4

> <r_i_docking_score>
-8.40605239866541

> <r_i_glide_ligand_efficiency>
-0.365480539072409

> <r_i_glide_ligand_efficiency_sa>
-1.03937803576005

> <r_i_glide_ligand_efficiency_ln>
-2.0326596918663

> <r_i_glide_gscore>
-8.40605239866541

> <r_i_glide_lipo>
-3.27612447652964

> <r_i_glide_hbond>
-0.32

> <r_i_glide_metal>
0

> <r_i_glide_rewards>
-2.46677049103154

> <r_i_glide_evdw>
-37.7572746276855

> <r_i_glide_ecoul>
-5.61475515365601

> <r_i_glide_erotb>
0.386919573328443

> <r_i_glide_esite>
0

> <r_i_glide_emodel>
-39.7515589515494

> <r_i_glide_energy>
-43.3720297813416

> <r_i_glide_einternal>
1.51849865913391

> <i_i_glide_confnum>
8

> <i_i_glide_posenum>
31

> <r_i_glide_eff_state_penalty>
0

> <r_glide_shape_similarity>
0.766595423221588

> <s_m_subgroup_title>
505 training

> <s_m_subgroupid>
pocket_pv

> <b_m_subgroup_collapsed>
0

$$$$
BindingDB_50102088_mol_1
                    3D
 Schrodinger Suite 2021-2.
 60 62  0  0  1  0            999 V2000
   22.0730   -0.1658   53.4993 C   0  0  0  0  0  0
   23.4382   -0.0950   53.8720 C   0  0  0  0  0  0
   21.2664   -1.1143   54.1823 C   0  0  0  0  0  0
   21.5169    0.6390   52.4849 C   0  0  0  0  0  0
   23.9248   -0.8773   54.8590 N   0  0  0  0  0  0
   19.8980   -1.2084   53.8460 C   0  0  0  0  0  0
   24.3507    0.7803   53.2582 N   0  0  0  0  0  0
   20.1539    0.5080   52.1228 C   0  0  0  0  0  0
   19.3254   -0.3890   52.8350 C   0  0  0  0  0  0
   28.0172    1.4242   53.5009 C   0  0  0  0  0  0
   21.8011   -1.9017   55.1415 N   0  0  0  0  0  0
   26.6281    1.6739   53.4268 C   0  0  0  0  0  0
   23.0902   -1.7400   55.4259 C   0  0  0  0  0  0
   25.7442    0.5924   53.2316 C   0  0  0  0  0  0
   19.5917    1.2102   51.0742 O   0  0  0  0  0  0
   28.5293    0.1122   53.3764 C   0  0  0  0  0  0
   27.6587   -0.9611   53.1374 C   0  0  0  0  0  0
   20.9853    2.8738   49.9849 C   0  0  2  0  0  0
   23.2073    4.1618   50.2798 N   0  3  0  0  0  0
   22.5227    2.9592   49.6846 C   0  0  0  0  0  0
   29.0889    2.7330   53.7777 Cl  0  0  0  0  0  0
   20.4132    1.4367   49.9297 C   0  0  0  0  0  0
   26.2790   -0.7130   53.0460 C   0  0  0  0  0  0
   29.8579   -0.1333   53.4821 F   0  0  0  0  0  0
   17.9948   -0.4177   52.4634 O   0  0  0  0  0  0
   20.2636    3.6483   49.0405 O   0  0  0  0  0  0
   26.8756    4.1233   49.3358 O   0  0  0  0  0  0
   24.2879    5.2588   53.7098 O   0  0  0  0  0  0
   23.4130    4.0765   51.7710 C   0  0  0  0  0  0
   24.4644    4.5490   49.5399 C   0  0  0  0  0  0
   25.6193    3.5000   49.5724 C   0  0  0  0  0  0
   23.6103    5.4490   52.4766 C   0  0  0  0  0  0
   17.0743   -1.1496   53.2568 C   0  0  0  0  0  0
   22.1551    1.3234   51.9597 H   0  0  0  0  0  0
   19.2971   -1.9185   54.3915 H   0  0  0  0  0  0
   23.9855    1.6741   52.9659 H   0  0  0  0  0  0
   26.2554    2.6806   53.5441 H   0  0  0  0  0  0
   23.4996   -2.3828   56.1871 H   0  0  0  0  0  0
   28.0496   -1.9597   53.0212 H   0  0  0  0  0  0
   20.7729    3.2834   50.9710 H   0  0  0  0  0  0
   22.6696    2.9445   48.6039 H   0  0  0  0  0  0
   23.0362    2.0723   50.0526 H   0  0  0  0  0  0
   19.7948    1.2968   49.0423 H   0  0  0  0  0  0
   21.1985    0.6803   49.8388 H   0  0  0  0  0  0
   25.6204   -1.5491   52.8689 H   0  0  0  0  0  0
   19.3250    3.5483   49.2033 H   0  0  0  0  0  0
   27.0868    4.7039   50.0612 H   0  0  0  0  0  0
   25.2217    5.5249   53.5854 H   0  0  0  0  0  0
   24.2715    3.4424   51.9914 H   0  0  0  0  0  0
   22.5646    3.5797   52.2455 H   0  0  0  0  0  0
   24.2068    4.7707   48.5023 H   0  0  0  0  0  0
   24.8333    5.4896   49.9477 H   0  0  0  0  0  0
   25.7047    2.9766   50.5237 H   0  0  0  0  0  0
   25.4556    2.7341   48.8146 H   0  0  0  0  0  0
   22.6404    5.9216   52.6420 H   0  0  0  0  0  0
   24.2012    6.1550   51.8943 H   0  0  0  0  0  0
   16.0619   -0.9744   52.8977 H   0  0  0  0  0  0
   17.2701   -2.2167   53.1771 H   0  0  0  0  0  0
   17.1228   -0.8629   54.3078 H   0  0  0  0  0  0
   22.5567    4.9276   50.1275 H   0  0  0  0  0  0
  1  2  2  0  0  0
  1  3  1  0  0  0
  1  4  1  0  0  0
  2  5  1  0  0  0
  2  7  1  0  0  0
  3  6  1  0  0  0
  3 11  2  0  0  0
  4  8  2  0  0  0
  4 34  1  0  0  0
  5 13  2  0  0  0
  6  9  2  0  0  0
  6 35  1  0  0  0
  7 14  1  0  0  0
  7 36  1  0  0  0
  8  9  1  0  0  0
  8 15  1  0  0  0
  9 25  1  0  0  0
 10 12  2  0  0  0
 10 16  1  0  0  0
 10 21  1  0  0  0
 11 13  1  0  0  0
 12 14  1  0  0  0
 12 37  1  0  0  0
 13 38  1  0  0  0
 14 23  2  0  0  0
 15 22  1  0  0  0
 16 17  2  0  0  0
 16 24  1  0  0  0
 17 23  1  0  0  0
 17 39  1  0  0  0
 18 20  1  0  0  0
 18 22  1  0  0  0
 18 26  1  0  0  0
 18 40  1  0  0  0
 19 20  1  0  0  0
 19 29  1  0  0  0
 19 30  1  0  0  0
 19 60  1  0  0  0
 20 41  1  0  0  0
 20 42  1  0  0  0
 22 43  1  0  0  0
 22 44  1  0  0  0
 23 45  1  0  0  0
 25 33  1  0  0  0
 26 46  1  0  0  0
 27 31  1  0  0  0
 27 47  1  0  0  0
 28 32  1  0  0  0
 28 48  1  0  0  0
 29 32  1  0  0  0
 29 49  1  0  0  0
 29 50  1  0  0  0
 30 31  1  0  0  0
 30 51  1  0  0  0
 30 52  1  0  0  0
 31 53  1  0  0  0
 31 54  1  0  0  0
 32 55  1  0  0  0
 32 56  1  0  0  0
 33 57  1  0  0  0
 33 58  1  0  0  0
 33 59  1  0  0  0
M  CHG  1  19   1
M  END
> <s_m_entry_id>
204

> <s_m_entry_name>
pocket_pv.15

> <s_m_Source_Path>
/home/bortolaa/Project/GT/mario-master/docking/set505protein_struct_1_site_1_set505ligs_train

> <s_m_Source_File>
pocket_pv.maegz

> <i_m_Source_File_Index>
15

> <From>
www.bindingDB.org

> <BindingDB Reactant_set_id>
50733036

> <Ligand InChI>
InChI=1S/C22H26ClFN4O5/c1-32-20-10-19-16(9-21(20)33-12-15(31)11-28(4-6-29)5-7-30)22(26-13-25-19)27-14-2-3-18(24)17(23)8-14/h2-3,8-10,13,15,29-31H,4-7,11-12H2,1H3,(H,25,26,27)

> <Ligand InChI Key>
OAZGLXFQIVEFTB-UHFFFAOYSA-N

> <BindingDB MonomerID>
50102088

> <BindingDB Ligand Name>
1-[Bis-(2-hydroxy-ethyl)-amino]-3-[4-(3-chloro-4-fluoro-phenylamino)-7-methoxy-quinazolin-6-yloxy]-propan-2-ol::CHEMBL299893

> <Target Name Assigned by Curator or DataSource>
Epidermal growth factor receptor

> <Target Source Organism According to Curator or DataSource>
Homo sapiens

> <Ki (nM)>


> <Kd (nM)>


> <EC50 (nM)>


> <kon (M-1-s-1)>


> <koff (s-1)>


> <pH>


> <Temp C>


> <Curation/DataSource>
ChEMBL

> <Article DOI>
10.1016/s0960-894x(01)00344-4

> <PubChem AID>


> <Patent Number>


> <Authors>
Barker, AJ; Gibson, KH; Grundy, W; Godfrey, AA; Barlow, JJ; Healy, MP; Woodburn, JR; Ashton, SE; Curry, BJ; Scarlett, L; Henthorn, L; Richards, L

> <Institution>
AstraZeneca

> <Link to Ligand in BindingDB>
http://www.bindingdb.org/bind/chemsearch/marvin/MolStructure.jsp?monomerid=50102088

> <Link to Ligand-Target Pair in BindingDB>
http://www.bindingdb.org/jsp/dbsearch/PrimarySearch_ki.jsp?energyterm=kJ/mole&tag=r21&monomerid=50102088&enzyme=Epidermal+growth+factor+receptor&column=ki&startPg=0&Increment=50&submit=Search

> <Ligand HET ID in PDB>


> <PDB ID(s) for Ligand-Target Complex>


> <PubChem CID>
44299938

> <PubChem SID>
103998645

> <ChEBI ID of Ligand>


> <ChEMBL ID of Ligand>
CHEMBL299893

> <DrugBank ID of Ligand>


> <IUPHAR_GRAC ID of Ligand>


> <KEGG ID of Ligand>


> <ZINC ID of Ligand>
ZINC29559030

> <Number of Protein Chains in Target (>
1

> <BindingDB Target Chain Sequence>
MRPSGTAGAALLALLAALCPASRALEEKKVCQGTSNKLTQLGTFEDHFLSLQRMFNNCEVVLGNLEITYVQRNYDLSFLKTIQEVAGYVLIALNTVERIPLENLQIIRGNMYYENSYALAVLSNYDANKTGLKELPMRNLQEILHGAVRFSNNPALCNVESIQWRDIVSSDFLSNMSMDFQNHLGSCQKCDPSCPNGSCWGAGEENCQKLTKIICAQQCSGRCRGKSPSDCCHNQCAAGCTGPRESDCLVCRKFRDEATCKDTCPPLMLYNPTTYQMDVNPEGKYSFGATCVKKCPRNYVVTDHGSCVRACGADSYEMEEDGVRKCKKCEGPCRKVCNGIGIGEFKDSLSINATNIKHFKNCTSISGDLHILPVAFRGDSFTHTPPLDPQELDILKTVKEITGFLLIQAWPENRTDLHAFENLEIIRGRTKQHGQFSLAVVSLNITSLGLRSLKEISDGDVIISGNKNLCYANTINWKKLFGTSGQKTKIISNRGENSCKATGQVCHALCSPEGCWGPEPRDCVSCRNVSRGRECVDKCNLLEGEPREFVENSECIQCHPECLPQAMNITCTGRGPDNCIQCAHYIDGPHCVKTCPAGVMGENNTLVWKYADAGHVCHLCHPNCTYGCTGPGLEGCPTNGPKIPSIATGMVGALLLLLVVALGIGLFMRRRHIVRKRTLRRLLQERELVEPLTPSGEAPNQALLRILKETEFKKIKVLGSGAFGTVYKGLWIPEGEKVKIPVAIKELREATSPKANKEILDEAYVMASVDNPHVCRLLGICLTSTVQLITQLMPFGCLLDYVREHKDNIGSQYLLNWCVQIAKGMNYLEDRRLVHRDLAARNVLVKTPQHVKITDFGLAKLLGAEEKEYHAEGGKVPIKWMALESILHRIYTHQSDVWSYGVTVWELMTFGSKPYDGIPASEISSILEKGERLPQPPICTIDVYMIMVKCWMIDADSRPKFRELIIEFSKMARDPQRYLVIQGDERMHLPSPTDSNFYRALMDEEDMDDVVDADEYLIPQQGFFSSPSTSRTPLLSSLSATSNNSTVACIDRNGLQSCPIKEDSFLQRYSSDPTGALTEDSIDDTFLPVPEYINQSVPKRPAGSVQNPVYHNQPLNPAPSRDPHYQDPHSTAVGNPEYLNTVQPTCVNSTFDSPAHWAQKGSHQISLDNPDYQQDFFPKEAKPNGIFKGSTAENAEYLRVAPQSSEFIGA

> <PDB ID(s) of Target Chain>
1IVO,1M14,1M17,1MOX,1XKK,1Z9I,2GS2,2GS6,2ITW,2ITX,2ITY,2J5E,2J5F,2J6M,2RF9,2RGP,3B2V,3BEL,3GOP,3POZ,3QWQ,3VJO,3W2O,3W2P,3W2Q,3W2R,3W2S,3W32,3W33,4G5J,4I23,4JQ7,4JQ8,4JR3,4JRV,4KRO,4LI5,4RJ4,4RJ5,4RJ6,4RJ7,4RJ8,4TKS,4UIP,4UV7,4WKQ,4WRG,4ZAU,5C8K,5C8M,5C8N,5CAL,5CAN,5CAO,5CAP,5CAQ,5CAS,5CAU,5CAV,5EDP,5EDQ,5EDR,5EM5,5EM6,5EM7,5EM8,5FED,5GNK,5HCX,5HCY,5HCZ,5HIB,5HIC,5UGB,5WB7,5WB8,5Y25,6S89,6S8A

> <UniProt (SwissProt) Recommended Name of Target Chain>
Epidermal growth factor receptor

> <UniProt (SwissProt) Entry Name of Target Chain>
EGFR_HUMAN

> <UniProt (SwissProt) Primary ID of Target Chain>
P00533

> <UniProt (SwissProt) Secondary ID(s) of Target Chain>
O00688,O00732,P06268,Q14225,Q68GS5,Q92795,Q9BZS2,Q9GZX1,Q9H2C9,Q9H3C9,Q9UMD7,Q9UMD8,Q9UMG5

> <UniProt (SwissProt) Alternative ID(s) of Target Chain>


> <UniProt (TrEMBL) Submitted Name of Target Chain>


> <UniProt (TrEMBL) Entry Name of Target Chain>


> <UniProt (TrEMBL) Primary ID of Target Chain>


> <UniProt (TrEMBL) Secondary ID(s) of Target Chain>


> <UniProt (TrEMBL) Alternative ID(s) of Target Chain>


> <training label>
8.30103

> <i_lp_mmshare_version>
54117

> <s_epik_input>
RmMxW2NIXVtjSF1jKFtjSF1jMUNsKVtOSF1jMm5bY0hdbmMoYzIzKVtjSF1jKE9bQ0gzXSljKFtjSF0zKU9bQ0gyXVtDQEhdKFtPSF0pW0NIMl1OKFtDSDJdW0NIMl1bT0hdKVtDSDJdW0NIMl1bT0hd

> <s_epik_cmdline>
J2VwaWtfcHl0aG9uJywgJy1waHQnLCAnMC4xJywgJy1waCcsICc3LjQnLCAnLXRuJywgJzgnLCAnLW1hJywgJzIwMCcsICctaW1hZScsICc8aW5maWxlLm1hZT4nLCAnLW9tYWUnLCAnPG91dGZpbGUubWFlPic=

> <r_lp_tautomer_probability>
0.999978000241998

> <r_epik_Ionization_Penalty>
  0.2831

> <r_epik_Ionization_Penalty_Charging>
  0.2826

> <r_epik_Ionization_Penalty_Neutral>
  0.0005

> <r_epik_State_Penalty>
  0.2753

> <r_epik_Charging_Adjusted_Penalty>
0.557877583750024

> <i_epik_Tot_Q>
1

> <i_epik_Tot_abs_Q>
1

> <i_f3d_flags>
0

> <s_lp_Force_Field>
OPLS_2005

> <r_lp_Energy>
32.084903

> <b_lp_Chiralities_Consistent>
1

> <s_lp_Variant>
BindingDB_50102088_mol_1-1

> <s_i_glide_gridfile>
struct_1_site_1

> <i_i_glide_lignum>
253

> <i_i_glide_rotatable_bonds>
15

> <r_i_docking_score>
-8.3660320019051

> <r_i_glide_ligand_efficiency>
-0.253516121269852

> <r_i_glide_ligand_efficiency_sa>
-0.813161661232692

> <r_i_glide_ligand_efficiency_ln>
-1.86056220022826

> <r_i_glide_gscore>
-8.6413320019051

> <r_i_glide_lipo>
-3.1732844461522

> <r_i_glide_hbond>
-0.450315432516643

> <r_i_glide_metal>
0

> <r_i_glide_rewards>
-1.53647037827707

> <r_i_glide_evdw>
-44.9823913574219

> <r_i_glide_ecoul>
-14.5826787948608

> <r_i_glide_erotb>
0.960976617361303

> <r_i_glide_esite>
-0.00571697522026781

> <r_i_glide_emodel>
-65.4309373515601

> <r_i_glide_energy>
-59.5650701522827

> <r_i_glide_einternal>
6.991295337677

> <i_i_glide_confnum>
473

> <i_i_glide_posenum>
245

> <r_i_glide_eff_state_penalty>
0.2753

> <IC50 (nM)>
5

> <PMID>
11459659

> <r_glide_shape_similarity>
0.706523954868317

> <s_m_subgroup_title>
505 training

> <s_m_subgroupid>
pocket_pv

> <b_m_subgroup_collapsed>
0

$$$$
BindingDB_50117985
                    3D
 Schrodinger Suite 2021-2.
 48 51  0  0  1  0            999 V2000
   22.0434   -0.1622   53.4821 C   0  0  0  0  0  0
   23.3948   -0.0573   53.8604 C   0  0  0  0  0  0
   21.2571   -1.1168   54.1654 C   0  0  0  0  0  0
   21.4800    0.6419   52.4699 C   0  0  0  0  0  0
   27.7714   -2.3916   52.9496 N   0  0  0  0  0  0
   28.4450   -1.2355   53.3224 C   0  0  0  0  0  0
   23.9103   -0.8543   54.8173 N   0  0  0  0  0  0
   19.8940   -1.2245   53.8275 C   0  0  0  0  0  0
   24.1949    0.9560   53.3107 N   0  0  0  0  0  0
   20.1157    0.5259   52.1451 C   0  0  0  0  0  0
   19.3127   -0.3926   52.8404 C   0  0  0  0  0  0
   21.8000   -1.8895   55.1261 N   0  0  0  0  0  0
   27.7463    0.0020   53.3700 C   0  0  0  0  0  0
   28.6837   -3.3303   52.9748 C   0  0  0  0  0  0
   23.0888   -1.7070   55.4039 C   0  0  0  0  0  0
   29.8877   -2.8793   53.3816 O   0  0  0  0  0  0
   29.7420   -1.5454   53.5661 C   0  0  0  0  0  0
   25.5816    1.0759   53.3475 C   0  0  0  0  0  0
   26.3545   -0.0732   53.3147 C   0  0  0  0  0  0
   19.4595    1.2918   51.2055 O   0  0  0  0  0  0
   17.9760   -0.3686   52.4872 O   0  0  0  0  0  0
   28.3994    1.2395   53.4370 C   0  0  0  0  0  0
   27.6256    2.4056   53.4224 C   0  0  0  0  0  0
   26.2209    2.3275   53.3740 C   0  0  0  0  0  0
   20.1674    2.1171   50.2955 C   0  0  0  0  0  0
   17.0182   -1.1325   53.1953 C   0  0  0  0  0  0
   20.7126    1.2803   49.1427 C   0  0  0  0  0  0
   15.6497   -0.4230   53.1878 C   0  0  0  0  0  0
   22.0951    1.3508   51.9427 H   0  0  0  0  0  0
   19.3037   -1.9524   54.3621 H   0  0  0  0  0  0
   23.7033    1.7079   52.8638 H   0  0  0  0  0  0
   28.5333   -4.3536   52.6862 H   0  0  0  0  0  0
   23.5080   -2.3278   56.1839 H   0  0  0  0  0  0
   30.6138   -0.9854   53.8701 H   0  0  0  0  0  0
   25.8512   -1.0245   53.2392 H   0  0  0  0  0  0
   29.4768    1.3051   53.4757 H   0  0  0  0  0  0
   28.1013    3.3774   53.4513 H   0  0  0  0  0  0
   25.6451    3.2442   53.3710 H   0  0  0  0  0  0
   20.9430    2.7084   50.7780 H   0  0  0  0  0  0
   19.4563    2.8431   49.8982 H   0  0  0  0  0  0
   16.9516   -2.1115   52.7114 H   0  0  0  0  0  0
   17.2921   -1.3035   54.2383 H   0  0  0  0  0  0
   21.1993    1.9104   48.4052 H   0  0  0  0  0  0
   19.9087    0.7499   48.6407 H   0  0  0  0  0  0
   21.4362    0.5404   49.4871 H   0  0  0  0  0  0
   14.8465   -1.1629   53.2429 H   0  0  0  0  0  0
   15.5262    0.2077   54.0830 H   0  0  0  0  0  0
   15.5062    0.1682   52.2800 H   0  0  0  0  0  0
  1  2  1  0  0  0
  1  3  1  0  0  0
  1  4  2  0  0  0
  2  7  2  0  0  0
  2  9  1  0  0  0
  3  8  2  0  0  0
  3 12  1  0  0  0
  4 10  1  0  0  0
  4 29  1  0  0  0
  5  6  1  0  0  0
  5 14  2  0  0  0
  6 13  1  0  0  0
  6 17  2  0  0  0
  7 15  1  0  0  0
  8 11  1  0  0  0
  8 30  1  0  0  0
  9 18  1  0  0  0
  9 31  1  0  0  0
 10 11  2  0  0  0
 10 20  1  0  0  0
 11 21  1  0  0  0
 12 15  2  0  0  0
 13 19  1  0  0  0
 13 22  2  0  0  0
 14 16  1  0  0  0
 14 32  1  0  0  0
 15 33  1  0  0  0
 16 17  1  0  0  0
 17 34  1  0  0  0
 18 19  2  0  0  0
 18 24  1  0  0  0
 19 35  1  0  0  0
 20 25  1  0  0  0
 21 26  1  0  0  0
 22 23  1  0  0  0
 22 36  1  0  0  0
 23 24  2  0  0  0
 23 37  1  0  0  0
 24 38  1  0  0  0
 25 27  1  0  0  0
 25 39  1  0  0  0
 25 40  1  0  0  0
 26 28  1  0  0  0
 26 41  1  0  0  0
 26 42  1  0  0  0
 27 43  1  0  0  0
 27 44  1  0  0  0
 27 45  1  0  0  0
 28 46  1  0  0  0
 28 47  1  0  0  0
 28 48  1  0  0  0
M  END
> <s_m_entry_id>
205

> <s_m_entry_name>
pocket_pv.16

> <s_m_Source_Path>
/home/bortolaa/Project/GT/mario-master/docking/set505protein_struct_1_site_1_set505ligs_train

> <s_m_Source_File>
pocket_pv.maegz

> <i_m_Source_File_Index>
16

> <From>
www.bindingDB.org

> <BindingDB Reactant_set_id>
50212977

> <Ligand InChI>
InChI=1S/C21H20N4O3/c1-3-27-19-9-16-17(10-20(19)28-4-2)22-12-23-21(16)25-15-7-5-6-14(8-15)18-11-26-13-24-18/h5-13H,3-4H2,1-2H3,(H,22,23,25)

> <Ligand InChI Key>
IOCCYZUACQGGIM-UHFFFAOYSA-N

> <BindingDB MonomerID>
50117985

> <BindingDB Ligand Name>
(6,7-Diethoxy-quinazolin-4-yl)-(3-oxazol-4-yl-phenyl)-amine::CHEMBL126996

> <Target Name Assigned by Curator or DataSource>
Epidermal growth factor receptor

> <Target Source Organism According to Curator or DataSource>
Homo sapiens

> <Ki (nM)>


> <IC50 (nM)>
720

> <Kd (nM)>


> <EC50 (nM)>


> <kon (M-1-s-1)>


> <koff (s-1)>


> <pH>


> <Temp C>


> <Curation/DataSource>
ChEMBL

> <Article DOI>
10.1021/jm010496a

> <PubChem AID>


> <Patent Number>


> <Authors>
Wright, SW; Carlo, AA; Carty, MD; Danley, DE; Hageman, DL; Karam, GA; Levy, CB; Mansour, MN; Mathiowetz, AM; McClure, LD; Nestor, NB; McPherson, RK; Pandit, J; Pustilnik, LR; Schulte, GK; Soeller, WC; Treadway, JL; Wang, IK; Bauer, PH

> <Institution>
Pfizer Central Research

> <Link to Ligand in BindingDB>
http://www.bindingdb.org/bind/chemsearch/marvin/MolStructure.jsp?monomerid=50117985

> <Link to Ligand-Target Pair in BindingDB>
http://www.bindingdb.org/jsp/dbsearch/PrimarySearch_ki.jsp?energyterm=kJ/mole&tag=r21&monomerid=50117985&enzyme=Epidermal+growth+factor+receptor&column=ki&startPg=0&Increment=50&submit=Search

> <Ligand HET ID in PDB>


> <PDB ID(s) for Ligand-Target Complex>


> <PubChem CID>
10172616

> <PubChem SID>
104011389

> <ChEBI ID of Ligand>


> <ChEMBL ID of Ligand>
CHEMBL126996

> <DrugBank ID of Ligand>


> <IUPHAR_GRAC ID of Ligand>


> <KEGG ID of Ligand>


> <ZINC ID of Ligand>
ZINC13490791

> <Number of Protein Chains in Target (>
1

> <BindingDB Target Chain Sequence>
MRPSGTAGAALLALLAALCPASRALEEKKVCQGTSNKLTQLGTFEDHFLSLQRMFNNCEVVLGNLEITYVQRNYDLSFLKTIQEVAGYVLIALNTVERIPLENLQIIRGNMYYENSYALAVLSNYDANKTGLKELPMRNLQEILHGAVRFSNNPALCNVESIQWRDIVSSDFLSNMSMDFQNHLGSCQKCDPSCPNGSCWGAGEENCQKLTKIICAQQCSGRCRGKSPSDCCHNQCAAGCTGPRESDCLVCRKFRDEATCKDTCPPLMLYNPTTYQMDVNPEGKYSFGATCVKKCPRNYVVTDHGSCVRACGADSYEMEEDGVRKCKKCEGPCRKVCNGIGIGEFKDSLSINATNIKHFKNCTSISGDLHILPVAFRGDSFTHTPPLDPQELDILKTVKEITGFLLIQAWPENRTDLHAFENLEIIRGRTKQHGQFSLAVVSLNITSLGLRSLKEISDGDVIISGNKNLCYANTINWKKLFGTSGQKTKIISNRGENSCKATGQVCHALCSPEGCWGPEPRDCVSCRNVSRGRECVDKCNLLEGEPREFVENSECIQCHPECLPQAMNITCTGRGPDNCIQCAHYIDGPHCVKTCPAGVMGENNTLVWKYADAGHVCHLCHPNCTYGCTGPGLEGCPTNGPKIPSIATGMVGALLLLLVVALGIGLFMRRRHIVRKRTLRRLLQERELVEPLTPSGEAPNQALLRILKETEFKKIKVLGSGAFGTVYKGLWIPEGEKVKIPVAIKELREATSPKANKEILDEAYVMASVDNPHVCRLLGICLTSTVQLITQLMPFGCLLDYVREHKDNIGSQYLLNWCVQIAKGMNYLEDRRLVHRDLAARNVLVKTPQHVKITDFGLAKLLGAEEKEYHAEGGKVPIKWMALESILHRIYTHQSDVWSYGVTVWELMTFGSKPYDGIPASEISSILEKGERLPQPPICTIDVYMIMVKCWMIDADSRPKFRELIIEFSKMARDPQRYLVIQGDERMHLPSPTDSNFYRALMDEEDMDDVVDADEYLIPQQGFFSSPSTSRTPLLSSLSATSNNSTVACIDRNGLQSCPIKEDSFLQRYSSDPTGALTEDSIDDTFLPVPEYINQSVPKRPAGSVQNPVYHNQPLNPAPSRDPHYQDPHSTAVGNPEYLNTVQPTCVNSTFDSPAHWAQKGSHQISLDNPDYQQDFFPKEAKPNGIFKGSTAENAEYLRVAPQSSEFIGA

> <PDB ID(s) of Target Chain>
1IVO,1M14,1M17,1MOX,1XKK,1Z9I,2GS2,2GS6,2ITW,2ITX,2ITY,2J5E,2J5F,2J6M,2RF9,2RGP,3B2V,3BEL,3GOP,3POZ,3QWQ,3VJO,3W2O,3W2P,3W2Q,3W2R,3W2S,3W32,3W33,4G5J,4I23,4JQ7,4JQ8,4JR3,4JRV,4KRO,4LI5,4RJ4,4RJ5,4RJ6,4RJ7,4RJ8,4TKS,4UIP,4UV7,4WKQ,4WRG,4ZAU,5C8K,5C8M,5C8N,5CAL,5CAN,5CAO,5CAP,5CAQ,5CAS,5CAU,5CAV,5EDP,5EDQ,5EDR,5EM5,5EM6,5EM7,5EM8,5FED,5GNK,5HCX,5HCY,5HCZ,5HIB,5HIC,5UGB,5WB7,5WB8,5Y25,6S89,6S8A

> <UniProt (SwissProt) Recommended Name of Target Chain>
Epidermal growth factor receptor

> <UniProt (SwissProt) Entry Name of Target Chain>
EGFR_HUMAN

> <UniProt (SwissProt) Primary ID of Target Chain>
P00533

> <UniProt (SwissProt) Secondary ID(s) of Target Chain>
O00688,O00732,P06268,Q14225,Q68GS5,Q92795,Q9BZS2,Q9GZX1,Q9H2C9,Q9H3C9,Q9UMD7,Q9UMD8,Q9UMG5

> <UniProt (SwissProt) Alternative ID(s) of Target Chain>


> <UniProt (TrEMBL) Submitted Name of Target Chain>


> <UniProt (TrEMBL) Entry Name of Target Chain>


> <UniProt (TrEMBL) Primary ID of Target Chain>


> <UniProt (TrEMBL) Secondary ID(s) of Target Chain>


> <UniProt (TrEMBL) Alternative ID(s) of Target Chain>


> <training label>
6.14267

> <i_lp_mmshare_version>
54117

> <s_epik_input>
W0NIM11bQ0gyXU9jKFtjSF0xKWMoT1tDSDJdW0NIM10pW2NIXWMoYzEyKW5bY0hdbmMyW05IXWMoW2NIXVtjSF1bY0hdMylbY0hdYzMtYzRuW2NIXW9bY0hdNA==

> <s_epik_cmdline>
J2VwaWtfcHl0aG9uJywgJy1waHQnLCAnMC4xJywgJy1waCcsICc3LjQnLCAnLXRuJywgJzgnLCAnLW1hJywgJzIwMCcsICctaW1hZScsICc8aW5maWxlLm1hZT4nLCAnLW9tYWUnLCAnPG91dGZpbGUubWFlPic=

> <r_lp_tautomer_probability>
1

> <r_epik_Ionization_Penalty>
  0.0005

> <r_epik_Ionization_Penalty_Charging>
  0.0000

> <r_epik_Ionization_Penalty_Neutral>
  0.0005

> <r_epik_State_Penalty>
  0.0000

> <r_epik_Charging_Adjusted_Penalty>
0

> <i_epik_Tot_Q>
0

> <i_epik_Tot_abs_Q>
0

> <i_f3d_flags>
0

> <s_lp_Force_Field>
OPLS_2005

> <r_lp_Energy>
23.311819

> <b_lp_Chiralities_Consistent>
1

> <s_lp_Variant>
BindingDB_50117985-1

> <s_i_glide_gridfile>
struct_1_site_1

> <i_i_glide_lignum>
96

> <i_i_glide_rotatable_bonds>
7

> <r_i_docking_score>
-8.36537277055889

> <r_i_glide_ligand_efficiency>
-0.298763313234246

> <r_i_glide_ligand_efficiency_sa>
-0.907221381160464

> <r_i_glide_ligand_efficiency_ln>
-1.93097365346231

> <r_i_glide_gscore>
-8.36537277055889

> <r_i_glide_lipo>
-3.44681410106459

> <r_i_glide_hbond>
-0.32

> <r_i_glide_metal>
0

> <r_i_glide_rewards>
-2.02549501806988

> <r_i_glide_evdw>
-43.5017890930176

> <r_i_glide_ecoul>
-7.20729637145996

> <r_i_glide_erotb>
0.683120258945453

> <r_i_glide_esite>
0

> <r_i_glide_emodel>
-65.1016090074797

> <r_i_glide_energy>
-50.7090854644775

> <r_i_glide_einternal>
1.48017942905426

> <i_i_glide_confnum>
11

> <i_i_glide_posenum>
27

> <r_i_glide_eff_state_penalty>
0

> <PMID>
12190310

> <r_glide_shape_similarity>
0.888457179069519

> <s_m_subgroup_title>
505 training

> <s_m_subgroupid>
pocket_pv

> <b_m_subgroup_collapsed>
0

$$$$
4-Anilinoquinazoline
                    3D
 Schrodinger Suite 2021-2.
 59 62  0  0  1  0            999 V2000
   23.4948   -0.0690   53.8487 C   0  0  0  0  0  0
   23.0498   -1.6900   55.4115 C   0  0  0  0  0  0
   21.2713   -1.0162   54.1182 C   0  0  0  0  0  0
   22.1400   -0.1197   53.4241 C   0  0  0  0  0  0
   21.6572    0.6720   52.3531 C   0  0  0  0  0  0
   20.2869    0.6489   52.0103 C   0  0  0  0  0  0
   19.4064   -0.1471   52.7662 C   0  0  0  0  0  0
   19.8951   -1.0186   53.7748 C   0  0  0  0  0  0
   23.9300   -0.8691   54.8482 N   0  0  0  0  0  0
   21.7544   -1.8074   55.1066 N   0  0  0  0  0  0
   25.8395    0.6648   53.2820 C   0  0  0  0  0  0
   27.7852   -0.8455   53.1390 C   0  0  0  0  0  0
   26.4026   -0.6167   53.0330 C   0  0  0  0  0  0
   26.7206    1.7564   53.4947 C   0  0  0  0  0  0
   28.6532    0.2235   53.4082 C   0  0  0  0  0  0
   25.6199   -1.6539   52.6487 F   0  0  0  0  0  0
   24.4358    0.8300   53.2920 N   0  0  0  0  0  0
   24.0692    1.6795   52.8815 H   0  0  0  0  0  0
   18.0839    0.1495   52.5714 O   0  0  0  0  0  0
   19.7207    1.3969   50.9907 O   0  0  0  0  0  0
   20.5627    1.8589   49.9356 C   0  0  0  0  0  0
   17.1414   -0.8594   52.3046 C   0  0  0  0  0  0
   15.8230   -0.3008   52.8725 C   0  0  1  0  0  0
   15.3913    0.9997   52.1558 C   0  0  0  0  0  0
   14.1354    1.6074   52.8186 C   0  0  0  0  0  0
   13.3966   -0.6569   53.5191 C   0  0  0  0  0  0
   14.6418   -1.2911   52.8489 C   0  0  0  0  0  0
   13.0076    0.6278   52.8595 N   0  3  1  0  0  0
   11.7707    1.2230   53.4426 C   0  0  0  0  0  0
   28.1256    1.5389   53.5480 C   0  0  0  0  0  0
   28.9710    2.6017   53.7430 O   0  0  0  0  0  0
   30.1368   -0.0882   53.5310 C   0  0  0  0  0  0
   23.4202   -2.3314   56.1967 H   0  0  0  0  0  0
   22.3338    1.3147   51.8113 H   0  0  0  0  0  0
   19.2135   -1.6156   54.3618 H   0  0  0  0  0  0
   28.1682   -1.8456   52.9970 H   0  0  0  0  0  0
   26.3334    2.7565   53.6314 H   0  0  0  0  0  0
   19.9473    2.2435   49.1212 H   0  0  0  0  0  0
   21.2055    2.6729   50.2795 H   0  0  0  0  0  0
   21.1880    1.0553   49.5356 H   0  0  0  0  0  0
   17.4040   -1.8256   52.7391 H   0  0  0  0  0  0
   17.0647   -0.9426   51.2222 H   0  0  0  0  0  0
   16.0086   -0.0666   53.9198 H   0  0  0  0  0  0
   15.1935    0.7978   51.1038 H   0  0  0  0  0  0
   16.1939    1.7372   52.1738 H   0  0  0  0  0  0
   13.8253    2.4963   52.2656 H   0  0  0  0  0  0
   14.3712    1.9365   53.8315 H   0  0  0  0  0  0
   12.5616   -1.3589   53.4772 H   0  0  0  0  0  0
   13.5914   -0.4662   54.5736 H   0  0  0  0  0  0
   14.9109   -2.2059   53.3738 H   0  0  0  0  0  0
   14.4098   -1.5805   51.8229 H   0  0  0  0  0  0
   11.9227    1.4871   54.4909 H   0  0  0  0  0  0
   11.4791    2.1276   52.9019 H   0  0  0  0  0  0
   10.9366    0.5207   53.3814 H   0  0  0  0  0  0
   29.8994    2.3896   53.6987 H   0  0  0  0  0  0
   30.3864   -0.2706   54.5748 H   0  0  0  0  0  0
   30.3994   -0.9796   52.9607 H   0  0  0  0  0  0
   30.7493    0.7304   53.1606 H   0  0  0  0  0  0
   12.7865    0.4004   51.8935 H   0  0  0  0  0  0
  1  4  2  0  0  0
  1  9  1  0  0  0
  1 17  1  0  0  0
  2  9  2  0  0  0
  2 10  1  0  0  0
  2 33  1  0  0  0
  3  4  1  0  0  0
  3  8  1  0  0  0
  3 10  2  0  0  0
  4  5  1  0  0  0
  5  6  2  0  0  0
  5 34  1  0  0  0
  6  7  1  0  0  0
  6 20  1  0  0  0
  7  8  2  0  0  0
  7 19  1  0  0  0
  8 35  1  0  0  0
 11 13  2  0  0  0
 11 14  1  0  0  0
 11 17  1  0  0  0
 12 13  1  0  0  0
 12 15  2  0  0  0
 12 36  1  0  0  0
 13 16  1  0  0  0
 14 30  2  0  0  0
 14 37  1  0  0  0
 15 30  1  0  0  0
 15 32  1  0  0  0
 17 18  1  0  0  0
 19 22  1  0  0  0
 20 21  1  0  0  0
 21 38  1  0  0  0
 21 39  1  0  0  0
 21 40  1  0  0  0
 22 23  1  0  0  0
 22 41  1  0  0  0
 22 42  1  0  0  0
 23 24  1  0  0  0
 23 27  1  0  0  0
 23 43  1  0  0  0
 24 25  1  0  0  0
 24 44  1  0  0  0
 24 45  1  0  0  0
 25 28  1  0  0  0
 25 46  1  0  0  0
 25 47  1  0  0  0
 26 27  1  0  0  0
 26 28  1  0  0  0
 26 48  1  0  0  0
 26 49  1  0  0  0
 27 50  1  0  0  0
 27 51  1  0  0  0
 28 29  1  0  0  0
 28 59  1  0  0  0
 29 52  1  0  0  0
 29 53  1  0  0  0
 29 54  1  0  0  0
 30 31  1  0  0  0
 31 55  1  0  0  0
 32 56  1  0  0  0
 32 57  1  0  0  0
 32 58  1  0  0  0
M  CHG  1  28   1
M  END
> <s_m_entry_id>
206

> <s_m_entry_name>
pocket_pv.17

> <s_m_Source_Path>
/home/bortolaa/Project/GT/mario-master/docking/set505protein_struct_1_site_1_set505ligs_train

> <s_m_Source_File>
pocket_pv.maegz

> <i_m_Source_File_Index>
17

> <From>
www.bindingDB.org

> <BindingDB Reactant_set_id>
7084

> <Ligand InChI>
InChI=1S/C23H27FN4O3/c1-14-8-17(24)19(10-20(14)29)27-23-16-9-21(30-3)22(11-18(16)25-13-26-23)31-12-15-4-6-28(2)7-5-15/h8-11,13,15,29H,4-7,12H2,1-3H3,(H,25,26,27)

> <Ligand InChI Key>
SIABKVPDKZOJCK-UHFFFAOYSA-N

> <BindingDB MonomerID>
4671

> <BindingDB Ligand Name>
4-Anilinoquinazoline 18::4-fluoro-5-({6-methoxy-7-[(1-methylpiperidin-4-yl)methoxy]quinazolin-4-yl}amino)-2-methylphenol

> <Target Name Assigned by Curator or DataSource>
Epidermal growth factor receptor

> <Target Source Organism According to Curator or DataSource>
Homo sapiens

> <Ki (nM)>


> <Kd (nM)>


> <EC50 (nM)>


> <kon (M-1-s-1)>


> <koff (s-1)>


> <pH>


> <Curation/DataSource>
Curated from the literature by BindingDB

> <Article DOI>
10.1021/jm011022e

> <PubChem AID>


> <Patent Number>


> <Authors>
Hennequin, LF; Stokes, ES; Thomas, AP; Johnstone, C; Ple, PA; Ogilvie, DJ; Dukes, M; Wedge, SR; Kendrew, J; Curwen, JO

> <Institution>
AstraZeneca

> <Link to Ligand in BindingDB>
http://www.bindingdb.org/bind/chemsearch/marvin/MolStructure.jsp?monomerid=4671

> <Link to Ligand-Target Pair in BindingDB>
http://www.bindingdb.org/jsp/dbsearch/PrimarySearch_ki.jsp?energyterm=kJ/mole&tag=r21&monomerid=4671&enzyme=Epidermal+growth+factor+receptor&column=ki&startPg=0&Increment=50&submit=Search

> <Ligand HET ID in PDB>


> <PDB ID(s) for Ligand-Target Complex>


> <PubChem CID>
5329044

> <PubChem SID>
8034328

> <ChEBI ID of Ligand>


> <ChEMBL ID of Ligand>


> <DrugBank ID of Ligand>


> <IUPHAR_GRAC ID of Ligand>


> <KEGG ID of Ligand>


> <ZINC ID of Ligand>
ZINC13472790

> <Number of Protein Chains in Target (>
1

> <BindingDB Target Chain Sequence>
MRPSGTAGAALLALLAALCPASRALEEKKVCQGTSNKLTQLGTFEDHFLSLQRMFNNCEVVLGNLEITYVQRNYDLSFLKTIQEVAGYVLIALNTVERIPLENLQIIRGNMYYENSYALAVLSNYDANKTGLKELPMRNLQEILHGAVRFSNNPALCNVESIQWRDIVSSDFLSNMSMDFQNHLGSCQKCDPSCPNGSCWGAGEENCQKLTKIICAQQCSGRCRGKSPSDCCHNQCAAGCTGPRESDCLVCRKFRDEATCKDTCPPLMLYNPTTYQMDVNPEGKYSFGATCVKKCPRNYVVTDHGSCVRACGADSYEMEEDGVRKCKKCEGPCRKVCNGIGIGEFKDSLSINATNIKHFKNCTSISGDLHILPVAFRGDSFTHTPPLDPQELDILKTVKEITGFLLIQAWPENRTDLHAFENLEIIRGRTKQHGQFSLAVVSLNITSLGLRSLKEISDGDVIISGNKNLCYANTINWKKLFGTSGQKTKIISNRGENSCKATGQVCHALCSPEGCWGPEPRDCVSCRNVSRGRECVDKCNLLEGEPREFVENSECIQCHPECLPQAMNITCTGRGPDNCIQCAHYIDGPHCVKTCPAGVMGENNTLVWKYADAGHVCHLCHPNCTYGCTGPGLEGCPTNGPKIPSIATGMVGALLLLLVVALGIGLFMRRRHIVRKRTLRRLLQERELVEPLTPSGEAPNQALLRILKETEFKKIKVLGSGAFGTVYKGLWIPEGEKVKIPVAIKELREATSPKANKEILDEAYVMASVDNPHVCRLLGICLTSTVQLITQLMPFGCLLDYVREHKDNIGSQYLLNWCVQIAKGMNYLEDRRLVHRDLAARNVLVKTPQHVKITDFGLAKLLGAEEKEYHAEGGKVPIKWMALESILHRIYTHQSDVWSYGVTVWELMTFGSKPYDGIPASEISSILEKGERLPQPPICTIDVYMIMVKCWMIDADSRPKFRELIIEFSKMARDPQRYLVIQGDERMHLPSPTDSNFYRALMDEEDMDDVVDADEYLIPQQGFFSSPSTSRTPLLSSLSATSNNSTVACIDRNGLQSCPIKEDSFLQRYSSDPTGALTEDSIDDTFLPVPEYINQSVPKRPAGSVQNPVYHNQPLNPAPSRDPHYQDPHSTAVGNPEYLNTVQPTCVNSTFDSPAHWAQKGSHQISLDNPDYQQDFFPKEAKPNGIFKGSTAENAEYLRVAPQSSEFIGA

> <PDB ID(s) of Target Chain>
1IVO,1M14,1M17,1MOX,1XKK,1Z9I,2GS2,2GS6,2ITW,2ITX,2ITY,2J5E,2J5F,2J6M,2RF9,2RGP,3B2V,3BEL,3GOP,3POZ,3QWQ,3VJO,3W2O,3W2P,3W2Q,3W2R,3W2S,3W32,3W33,4G5J,4I23,4JQ7,4JQ8,4JR3,4JRV,4KRO,4LI5,4RJ4,4RJ5,4RJ6,4RJ7,4RJ8,4TKS,4UIP,4UV7,4WKQ,4WRG,4ZAU,5C8K,5C8M,5C8N,5CAL,5CAN,5CAO,5CAP,5CAQ,5CAS,5CAU,5CAV,5EDP,5EDQ,5EDR,5EM5,5EM6,5EM7,5EM8,5FED,5GNK,5HCX,5HCY,5HCZ,5HIB,5HIC,5UGB,5WB7,5WB8,5Y25,6S89,6S8A

> <UniProt (SwissProt) Recommended Name of Target Chain>
Epidermal growth factor receptor

> <UniProt (SwissProt) Entry Name of Target Chain>
EGFR_HUMAN

> <UniProt (SwissProt) Primary ID of Target Chain>
P00533

> <UniProt (SwissProt) Secondary ID(s) of Target Chain>
O00688,O00732,P06268,Q14225,Q68GS5,Q92795,Q9BZS2,Q9GZX1,Q9H2C9,Q9H3C9,Q9UMD7,Q9UMD8,Q9UMG5

> <UniProt (SwissProt) Alternative ID(s) of Target Chain>


> <UniProt (TrEMBL) Submitted Name of Target Chain>


> <UniProt (TrEMBL) Entry Name of Target Chain>


> <UniProt (TrEMBL) Primary ID of Target Chain>


> <UniProt (TrEMBL) Secondary ID(s) of Target Chain>


> <UniProt (TrEMBL) Alternative ID(s) of Target Chain>


> <training label>
6.52288

> <i_lp_mmshare_version>
54117

> <s_epik_input>
W2NIXTFjKFtPSF0pYyhbQ0gzXSlbY0hdYyhGKWMxW05IXWMobltjSF1uMiljKGMyMylbY0hdYyhPW0NIM10pYyhbY0hdMylPW0NIMl1bQ0hdNFtDSDJdW0NIMl1OKFtDSDNdKVtDSDJdW0NIMl00

> <s_epik_cmdline>
J2VwaWtfcHl0aG9uJywgJy1waHQnLCAnMC4xJywgJy1waCcsICc3LjQnLCAnLXRuJywgJzgnLCAnLW1hJywgJzIwMCcsICctaW1hZScsICc8aW5maWxlLm1hZT4nLCAnLW9tYWUnLCAnPG91dGZpbGUubWFlPic=

> <r_lp_tautomer_probability>
1

> <r_epik_Ionization_Penalty>
  0.0058

> <r_epik_Ionization_Penalty_Charging>
  0.0039

> <r_epik_Ionization_Penalty_Neutral>
  0.0020

> <r_epik_State_Penalty>
  0.0000

> <r_epik_Charging_Adjusted_Penalty>
0.0038691425947202

> <i_epik_Tot_Q>
1

> <i_epik_Tot_abs_Q>
1

> <i_f3d_flags>
0

> <s_lp_Force_Field>
OPLS_2005

> <r_lp_Energy>
32.501862

> <b_lp_Chiralities_Consistent>
1

> <s_lp_Variant>
4-Anilinoquinazoline-1

> <s_i_glide_gridfile>
struct_1_site_1

> <i_i_glide_lignum>
122

> <i_i_glide_rotatable_bonds>
7

> <r_i_docking_score>
-8.36457799612237

> <r_i_glide_ligand_efficiency>
-0.269825096649109

> <r_i_glide_ligand_efficiency_sa>
-0.847623337172905

> <r_i_glide_ligand_efficiency_ln>
-1.88646868165548

> <r_i_glide_gscore>
-8.36457799612237

> <r_i_glide_lipo>
-3.20431879660473

> <r_i_glide_hbond>
-0.393539630185576

> <r_i_glide_metal>
0

> <r_i_glide_rewards>
-1.8401891903273

> <r_i_glide_evdw>
-42.3468360900879

> <r_i_glide_ecoul>
-9.01619720458984

> <r_i_glide_erotb>
0.543241006188111

> <r_i_glide_esite>
0

> <r_i_glide_emodel>
-56.1861943386736

> <r_i_glide_energy>
-51.3630332946777

> <r_i_glide_einternal>
7.13024377822876

> <i_i_glide_confnum>
154

> <i_i_glide_posenum>
20

> <r_i_glide_eff_state_penalty>
0

> <IC50 (nM)>
300

> <PMID>
11881999

> <Temp C>
25

> <r_glide_shape_similarity>
0.790263473987579

> <s_m_subgroup_title>
505 training

> <s_m_subgroupid>
pocket_pv

> <b_m_subgroup_collapsed>
0

$$$$
BindingDB_50039335_mol_1
                    3D
 Schrodinger Suite 2021-2.
 62 65  0  0  1  0            999 V2000
   21.8034   -1.9000   55.1438 N   0  0  0  0  0  0
   23.1000   -1.7384   55.4119 C   0  0  0  0  0  0
   23.9412   -0.8974   54.8208 N   0  0  0  0  0  0
   23.4364   -0.0916   53.8621 C   0  0  0  0  0  0
   22.0663   -0.1657   53.4898 C   0  0  0  0  0  0
   21.5005    0.6337   52.4620 C   0  0  0  0  0  0
   20.1262    0.5049   52.1270 C   0  0  0  0  0  0
   19.3188   -0.4092   52.8336 C   0  0  0  0  0  0
   19.8981   -1.2182   53.8466 C   0  0  0  0  0  0
   21.2641   -1.1153   54.1844 C   0  0  0  0  0  0
   24.2879    0.8536   53.2685 N   0  0  0  0  0  0
   19.4894    1.2085   51.1206 O   0  0  0  0  0  0
   20.1671    2.2603   50.4436 C   0  0  0  0  0  0
   21.1497    1.7120   49.3857 C   0  0  0  0  0  0
   22.0867    2.8060   48.8119 C   0  0  0  0  0  0
   23.1360    3.3232   49.8316 C   0  0  0  0  0  0
   24.0310    4.4712   49.3026 C   0  0  0  0  0  0
   24.9306    5.0837   50.4071 C   0  0  0  0  0  0
   26.9374    6.2426   49.3060 C   0  0  0  0  0  0
   27.3329    7.4861   48.9946 N   0  0  0  0  0  0
   26.3222    8.3192   49.4685 C   0  0  0  0  0  0
   25.3227    7.5532   50.0282 C   0  0  0  0  0  0
   25.7221    6.2160   49.9181 N   0  0  0  0  0  0
   27.7620    5.0729   48.9734 N   0  3  0  0  0  0
   28.9084    5.2718   48.5670 O   0  0  0  0  0  0
   27.2822    3.9433   49.0977 O   0  5  0  0  0  0
   17.9835   -0.4535   52.4647 O   0  0  0  0  0  0
   17.0638   -1.1752   53.2720 C   0  0  0  0  0  0
   25.6848    0.9541   53.3416 C   0  0  0  0  0  0
   26.5163   -0.1896   53.3326 C   0  0  0  0  0  0
   27.9171   -0.0509   53.3881 C   0  0  0  0  0  0
   28.4992    1.2338   53.4440 C   0  0  0  0  0  0
   27.6738    2.3754   53.4291 C   0  0  0  0  0  0
   26.2739    2.2383   53.3754 C   0  0  0  0  0  0
   28.7441   -1.2421   53.3706 C   0  0  0  0  0  0
   29.3733   -2.2866   53.3666 C   0  0  0  0  0  0
   23.5175   -2.3838   56.1717 H   0  0  0  0  0  0
   22.1216    1.3147   51.9022 H   0  0  0  0  0  0
   19.3008   -1.9345   54.3882 H   0  0  0  0  0  0
   23.8165    1.6308   52.8350 H   0  0  0  0  0  0
   19.4226    2.8824   49.9530 H   0  0  0  0  0  0
   20.6527    2.9046   51.1753 H   0  0  0  0  0  0
   21.7604    0.9199   49.8267 H   0  0  0  0  0  0
   20.5825    1.2484   48.5810 H   0  0  0  0  0  0
   22.6122    2.3989   47.9466 H   0  0  0  0  0  0
   21.4882    3.6348   48.4350 H   0  0  0  0  0  0
   22.6294    3.6879   50.7254 H   0  0  0  0  0  0
   23.7722    2.4947   50.1627 H   0  0  0  0  0  0
   24.6477    4.0972   48.4842 H   0  0  0  0  0  0
   23.3955    5.2476   48.8826 H   0  0  0  0  0  0
   24.3134    5.4413   51.2311 H   0  0  0  0  0  0
   25.5859    4.3404   50.8452 H   0  0  0  0  0  0
   26.3937    9.3936   49.3696 H   0  0  0  0  0  0
   24.3927    7.8394   50.4946 H   0  0  0  0  0  0
   16.0521   -0.9762   52.9338 H   0  0  0  0  0  0
   17.2358   -2.2485   53.2051 H   0  0  0  0  0  0
   17.1172   -0.8701   54.3150 H   0  0  0  0  0  0
   26.0768   -1.1770   53.2700 H   0  0  0  0  0  0
   29.5761    1.3505   53.4762 H   0  0  0  0  0  0
   28.1088    3.3645   53.4521 H   0  0  0  0  0  0
   25.6576    3.1275   53.3614 H   0  0  0  0  0  0
   29.8878   -3.2178   53.3761 H   0  0  0  0  0  0
  1  2  2  0  0  0
  1 10  1  0  0  0
  2  3  1  0  0  0
  2 37  1  0  0  0
  3  4  2  0  0  0
  4  5  1  0  0  0
  4 11  1  0  0  0
  5  6  2  0  0  0
  5 10  1  0  0  0
  6  7  1  0  0  0
  6 38  1  0  0  0
  7  8  2  0  0  0
  7 12  1  0  0  0
  8  9  1  0  0  0
  8 27  1  0  0  0
  9 10  2  0  0  0
  9 39  1  0  0  0
 11 29  1  0  0  0
 11 40  1  0  0  0
 12 13  1  0  0  0
 13 14  1  0  0  0
 13 41  1  0  0  0
 13 42  1  0  0  0
 14 15  1  0  0  0
 14 43  1  0  0  0
 14 44  1  0  0  0
 15 16  1  0  0  0
 15 45  1  0  0  0
 15 46  1  0  0  0
 16 17  1  0  0  0
 16 47  1  0  0  0
 16 48  1  0  0  0
 17 18  1  0  0  0
 17 49  1  0  0  0
 17 50  1  0  0  0
 18 23  1  0  0  0
 18 51  1  0  0  0
 18 52  1  0  0  0
 19 20  2  0  0  0
 19 23  1  0  0  0
 19 24  1  0  0  0
 20 21  1  0  0  0
 21 22  2  0  0  0
 21 53  1  0  0  0
 22 23  1  0  0  0
 22 54  1  0  0  0
 24 25  2  0  0  0
 24 26  1  0  0  0
 27 28  1  0  0  0
 28 55  1  0  0  0
 28 56  1  0  0  0
 28 57  1  0  0  0
 29 30  2  0  0  0
 29 34  1  0  0  0
 30 31  1  0  0  0
 30 58  1  0  0  0
 31 32  2  0  0  0
 31 35  1  0  0  0
 32 33  1  0  0  0
 32 59  1  0  0  0
 33 34  2  0  0  0
 33 60  1  0  0  0
 34 61  1  0  0  0
 35 36  3  0  0  0
 36 62  1  0  0  0
M  CHG  2  24   1  26  -1
M  END
> <s_m_entry_id>
207

> <s_m_entry_name>
pocket_pv.18

> <s_m_Source_Path>
/home/bortolaa/Project/GT/mario-master/docking/set505protein_struct_1_site_1_set505ligs_train

> <s_m_Source_File>
pocket_pv.maegz

> <i_m_Source_File_Index>
18

> <From>
www.bindingDB.org

> <BindingDB Reactant_set_id>
50258417

> <Ligand InChI>
InChI=1S/C26H26N6O4/c1-3-19-9-8-10-20(15-19)30-25-21-16-24(23(35-2)17-22(21)28-18-29-25)36-14-7-5-4-6-12-31-13-11-27-26(31)32(33)34/h1,8-11,13,15-18H,4-7,12,14H2,2H3,(H,28,29,30)

> <Ligand InChI Key>
CWFMGPWYOACYBH-UHFFFAOYSA-N

> <BindingDB MonomerID>
50039335

> <BindingDB Ligand Name>
CHEMBL3355882

> <Target Name Assigned by Curator or DataSource>
Epidermal growth factor receptor

> <Target Source Organism According to Curator or DataSource>
Homo sapiens

> <Ki (nM)>


> <Kd (nM)>


> <EC50 (nM)>


> <kon (M-1-s-1)>


> <koff (s-1)>


> <pH>


> <Temp C>


> <Curation/DataSource>
ChEMBL

> <Article DOI>
10.1016/j.ejmech.2014.11.010

> <PubChem AID>


> <Patent Number>


> <Authors>
Cheng, W; Zhu, S; Ma, X; Qiu, N; Peng, P; Sheng, R; Hu, Y

> <Institution>
Zhejiang University

> <Link to Ligand in BindingDB>
http://www.bindingdb.org/bind/chemsearch/marvin/MolStructure.jsp?monomerid=50039335

> <Link to Ligand-Target Pair in BindingDB>
http://www.bindingdb.org/jsp/dbsearch/PrimarySearch_ki.jsp?energyterm=kJ/mole&tag=r21&monomerid=50039335&enzyme=Epidermal+growth+factor+receptor&column=ki&startPg=0&Increment=50&submit=Search

> <Ligand HET ID in PDB>


> <PDB ID(s) for Ligand-Target Complex>


> <PubChem CID>
118721151

> <PubChem SID>
313067388

> <ChEBI ID of Ligand>


> <ChEMBL ID of Ligand>
CHEMBL3355882

> <DrugBank ID of Ligand>


> <IUPHAR_GRAC ID of Ligand>


> <KEGG ID of Ligand>


> <ZINC ID of Ligand>


> <Number of Protein Chains in Target (>
1

> <BindingDB Target Chain Sequence>
MRPSGTAGAALLALLAALCPASRALEEKKVCQGTSNKLTQLGTFEDHFLSLQRMFNNCEVVLGNLEITYVQRNYDLSFLKTIQEVAGYVLIALNTVERIPLENLQIIRGNMYYENSYALAVLSNYDANKTGLKELPMRNLQEILHGAVRFSNNPALCNVESIQWRDIVSSDFLSNMSMDFQNHLGSCQKCDPSCPNGSCWGAGEENCQKLTKIICAQQCSGRCRGKSPSDCCHNQCAAGCTGPRESDCLVCRKFRDEATCKDTCPPLMLYNPTTYQMDVNPEGKYSFGATCVKKCPRNYVVTDHGSCVRACGADSYEMEEDGVRKCKKCEGPCRKVCNGIGIGEFKDSLSINATNIKHFKNCTSISGDLHILPVAFRGDSFTHTPPLDPQELDILKTVKEITGFLLIQAWPENRTDLHAFENLEIIRGRTKQHGQFSLAVVSLNITSLGLRSLKEISDGDVIISGNKNLCYANTINWKKLFGTSGQKTKIISNRGENSCKATGQVCHALCSPEGCWGPEPRDCVSCRNVSRGRECVDKCNLLEGEPREFVENSECIQCHPECLPQAMNITCTGRGPDNCIQCAHYIDGPHCVKTCPAGVMGENNTLVWKYADAGHVCHLCHPNCTYGCTGPGLEGCPTNGPKIPSIATGMVGALLLLLVVALGIGLFMRRRHIVRKRTLRRLLQERELVEPLTPSGEAPNQALLRILKETEFKKIKVLGSGAFGTVYKGLWIPEGEKVKIPVAIKELREATSPKANKEILDEAYVMASVDNPHVCRLLGICLTSTVQLITQLMPFGCLLDYVREHKDNIGSQYLLNWCVQIAKGMNYLEDRRLVHRDLAARNVLVKTPQHVKITDFGLAKLLGAEEKEYHAEGGKVPIKWMALESILHRIYTHQSDVWSYGVTVWELMTFGSKPYDGIPASEISSILEKGERLPQPPICTIDVYMIMVKCWMIDADSRPKFRELIIEFSKMARDPQRYLVIQGDERMHLPSPTDSNFYRALMDEEDMDDVVDADEYLIPQQGFFSSPSTSRTPLLSSLSATSNNSTVACIDRNGLQSCPIKEDSFLQRYSSDPTGALTEDSIDDTFLPVPEYINQSVPKRPAGSVQNPVYHNQPLNPAPSRDPHYQDPHSTAVGNPEYLNTVQPTCVNSTFDSPAHWAQKGSHQISLDNPDYQQDFFPKEAKPNGIFKGSTAENAEYLRVAPQSSEFIGA

> <PDB ID(s) of Target Chain>
1IVO,1M14,1M17,1MOX,1XKK,1Z9I,2GS2,2GS6,2ITW,2ITX,2ITY,2J5E,2J5F,2J6M,2RF9,2RGP,3B2V,3BEL,3GOP,3POZ,3QWQ,3VJO,3W2O,3W2P,3W2Q,3W2R,3W2S,3W32,3W33,4G5J,4I23,4JQ7,4JQ8,4JR3,4JRV,4KRO,4LI5,4RJ4,4RJ5,4RJ6,4RJ7,4RJ8,4TKS,4UIP,4UV7,4WKQ,4WRG,4ZAU,5C8K,5C8M,5C8N,5CAL,5CAN,5CAO,5CAP,5CAQ,5CAS,5CAU,5CAV,5EDP,5EDQ,5EDR,5EM5,5EM6,5EM7,5EM8,5FED,5GNK,5HCX,5HCY,5HCZ,5HIB,5HIC,5UGB,5WB7,5WB8,5Y25,6S89,6S8A

> <UniProt (SwissProt) Recommended Name of Target Chain>
Epidermal growth factor receptor

> <UniProt (SwissProt) Entry Name of Target Chain>
EGFR_HUMAN

> <UniProt (SwissProt) Primary ID of Target Chain>
P00533

> <UniProt (SwissProt) Secondary ID(s) of Target Chain>
O00688,O00732,P06268,Q14225,Q68GS5,Q92795,Q9BZS2,Q9GZX1,Q9H2C9,Q9H3C9,Q9UMD7,Q9UMD8,Q9UMG5

> <UniProt (SwissProt) Alternative ID(s) of Target Chain>


> <UniProt (TrEMBL) Submitted Name of Target Chain>


> <UniProt (TrEMBL) Entry Name of Target Chain>


> <UniProt (TrEMBL) Primary ID of Target Chain>


> <UniProt (TrEMBL) Secondary ID(s) of Target Chain>


> <UniProt (TrEMBL) Alternative ID(s) of Target Chain>


> <training label>
9.30103

> <i_lp_mmshare_version>
54117

> <s_epik_input>
W2NIXTFbY0hdW2NIXWMoQyNbQ0hdKVtjSF1jMVtOSF1jMm5bY0hdbmMoYzIzKVtjSF1jKE9bQ0gzXSljKFtjSF0zKU9bQ0gyXVtDSDJdW0NIMl1bQ0gyXVtDSDJdW0NIMl1uNFtjSF1bY0hdbmM0W04rXSg9TylbTy1d

> <s_epik_cmdline>
J2VwaWtfcHl0aG9uJywgJy1waHQnLCAnMC4xJywgJy1waCcsICc3LjQnLCAnLXRuJywgJzgnLCAnLW1hJywgJzIwMCcsICctaW1hZScsICc8aW5maWxlLm1hZT4nLCAnLW9tYWUnLCAnPG91dGZpbGUubWFlPic=

> <r_lp_tautomer_probability>
1

> <r_epik_Ionization_Penalty>
  0.0005

> <r_epik_Ionization_Penalty_Charging>
  0.0000

> <r_epik_Ionization_Penalty_Neutral>
  0.0005

> <r_epik_State_Penalty>
  0.0000

> <r_epik_Charging_Adjusted_Penalty>
9.99137413461391e-09

> <i_epik_Tot_Q>
0

> <i_epik_Tot_abs_Q>
2

> <i_f3d_flags>
0

> <s_lp_Force_Field>
OPLS_2005

> <r_lp_Energy>
31.589662

> <b_lp_Chiralities_Consistent>
1

> <s_lp_Variant>
BindingDB_50039335_mol_1-1

> <s_i_glide_gridfile>
struct_1_site_1

> <i_i_glide_lignum>
286

> <i_i_glide_rotatable_bonds>
13

> <r_i_docking_score>
-8.33965929474061

> <r_i_glide_ligand_efficiency>
-0.231657202631684

> <r_i_glide_ligand_efficiency_sa>
-0.764915228858564

> <r_i_glide_ligand_efficiency_ln>
-1.81948834655622

> <r_i_glide_gscore>
-8.33965929474061

> <r_i_glide_lipo>
-3.46705796181696

> <r_i_glide_hbond>
-0.32

> <r_i_glide_metal>
0

> <r_i_glide_rewards>
-1.24952643309585

> <r_i_glide_evdw>
-54.9624977111816

> <r_i_glide_ecoul>
-8.05062198638916

> <r_i_glide_erotb>
0.944433233003668

> <r_i_glide_esite>
-0.291789949314009

> <r_i_glide_emodel>
-64.5426240218366

> <r_i_glide_energy>
-63.0131196975708

> <r_i_glide_einternal>
2.35516476631165

> <i_i_glide_confnum>
869

> <i_i_glide_posenum>
37

> <r_i_glide_eff_state_penalty>
0

> <IC50 (nM)>
0.5

> <PMID>
25462282

> <r_glide_shape_similarity>
0.688167631626129

> <s_m_subgroup_title>
505 training

> <s_m_subgroupid>
pocket_pv

> <b_m_subgroup_collapsed>
0

$$$$
4-Anilinoquinazoline
                    3D
 Schrodinger Suite 2021-2.
 59 62  0  0  1  0            999 V2000
   23.4588   -0.0707   53.8873 C   0  0  0  0  0  0
   23.0872   -1.7391   55.4229 C   0  0  0  0  0  0
   21.2684   -1.0920   54.1753 C   0  0  0  0  0  0
   22.0923   -0.1401   53.5005 C   0  0  0  0  0  0
   21.5591    0.6816   52.4807 C   0  0  0  0  0  0
   20.2043    0.5565   52.1017 C   0  0  0  0  0  0
   19.3763   -0.3722   52.7694 C   0  0  0  0  0  0
   19.9013   -1.1849   53.8102 C   0  0  0  0  0  0
   23.9296   -0.8775   54.8656 N   0  0  0  0  0  0
   21.7923   -1.8911   55.1358 N   0  0  0  0  0  0
   25.7907    0.6853   53.2921 C   0  0  0  0  0  0
   27.7504   -0.8193   53.1866 C   0  0  0  0  0  0
   26.3642   -0.6027   53.0987 C   0  0  0  0  0  0
   26.6690    1.7905   53.4525 C   0  0  0  0  0  0
   28.6117    0.2662   53.4034 C   0  0  0  0  0  0
   25.5854   -1.6657   52.7890 F   0  0  0  0  0  0
   24.3821    0.8353   53.3088 N   0  0  0  0  0  0
   24.0052    1.6763   52.8929 H   0  0  0  0  0  0
   18.1147   -0.4799   52.2343 O   0  0  0  0  0  0
   19.6313    1.3092   51.0925 O   0  0  0  0  0  0
   20.4482    1.6568   49.9748 C   0  0  0  0  0  0
   17.0128   -0.8472   53.0363 C   0  0  0  0  0  0
   15.8183   -0.9946   52.0531 C   0  0  1  0  0  0
   14.4864   -1.3451   52.7516 C   0  0  0  0  0  0
   13.9435   -0.1473   53.5621 C   0  0  0  0  0  0
   14.9913    1.4328   51.9266 C   0  0  0  0  0  0
   15.5851    0.2401   51.1474 C   0  0  0  0  0  0
   13.7599    1.0552   52.6956 N   0  3  2  0  0  0
   13.1856    2.2113   53.4399 C   0  0  0  0  0  0
   28.0755    1.5809   53.5038 C   0  0  0  0  0  0
   28.9209    2.6506   53.6673 O   0  0  0  0  0  0
   30.1029   -0.0154   53.5219 C   0  0  0  0  0  0
   23.4937   -2.3890   56.1810 H   0  0  0  0  0  0
   22.1903    1.3988   51.9773 H   0  0  0  0  0  0
   19.2831   -1.9149   54.3088 H   0  0  0  0  0  0
   28.1407   -1.8196   53.0609 H   0  0  0  0  0  0
   26.2783    2.7931   53.5626 H   0  0  0  0  0  0
   19.8172    2.0127   49.1602 H   0  0  0  0  0  0
   21.1417    2.4620   50.2266 H   0  0  0  0  0  0
   21.0154    0.7993   49.6061 H   0  0  0  0  0  0
   16.8280   -0.0694   53.7732 H   0  0  0  0  0  0
   17.1886   -1.7852   53.5616 H   0  0  0  0  0  0
   16.0612   -1.8315   51.3994 H   0  0  0  0  0  0
   14.6181   -2.2280   53.3736 H   0  0  0  0  0  0
   13.7484   -1.6269   51.9982 H   0  0  0  0  0  0
   14.6182    0.0913   54.3818 H   0  0  0  0  0  0
   12.9892   -0.4168   54.0146 H   0  0  0  0  0  0
   15.7547    1.8520   52.5747 H   0  0  0  0  0  0
   14.7350    2.2225   51.2200 H   0  0  0  0  0  0
   14.8917   -0.0361   50.3515 H   0  0  0  0  0  0
   16.5029    0.5417   50.6408 H   0  0  0  0  0  0
   13.8960    2.5913   54.1732 H   0  0  0  0  0  0
   12.9486    3.0263   52.7542 H   0  0  0  0  0  0
   12.2669    1.9282   53.9571 H   0  0  0  0  0  0
   29.8472    2.4410   53.6157 H   0  0  0  0  0  0
   30.6915    0.7335   52.9948 H   0  0  0  0  0  0
   30.3909   -0.0209   54.5734 H   0  0  0  0  0  0
   30.3587   -0.9882   53.1045 H   0  0  0  0  0  0
   13.0610    0.7906   52.0051 H   0  0  0  0  0  0
  1  4  2  0  0  0
  1  9  1  0  0  0
  1 17  1  0  0  0
  2  9  2  0  0  0
  2 10  1  0  0  0
  2 33  1  0  0  0
  3  4  1  0  0  0
  3  8  1  0  0  0
  3 10  2  0  0  0
  4  5  1  0  0  0
  5  6  2  0  0  0
  5 34  1  0  0  0
  6  7  1  0  0  0
  6 20  1  0  0  0
  7  8  2  0  0  0
  7 19  1  0  0  0
  8 35  1  0  0  0
 11 13  2  0  0  0
 11 14  1  0  0  0
 11 17  1  0  0  0
 12 13  1  0  0  0
 12 15  2  0  0  0
 12 36  1  0  0  0
 13 16  1  0  0  0
 14 30  2  0  0  0
 14 37  1  0  0  0
 15 30  1  0  0  0
 15 32  1  0  0  0
 17 18  1  0  0  0
 19 22  1  0  0  0
 20 21  1  0  0  0
 21 38  1  0  0  0
 21 39  1  0  0  0
 21 40  1  0  0  0
 22 23  1  0  0  0
 22 41  1  0  0  0
 22 42  1  0  0  0
 23 24  1  0  0  0
 23 27  1  0  0  0
 23 43  1  0  0  0
 24 25  1  0  0  0
 24 44  1  0  0  0
 24 45  1  0  0  0
 25 28  1  0  0  0
 25 46  1  0  0  0
 25 47  1  0  0  0
 26 27  1  0  0  0
 26 28  1  0  0  0
 26 48  1  0  0  0
 26 49  1  0  0  0
 27 50  1  0  0  0
 27 51  1  0  0  0
 28 29  1  0  0  0
 28 59  1  0  0  0
 29 52  1  0  0  0
 29 53  1  0  0  0
 29 54  1  0  0  0
 30 31  1  0  0  0
 31 55  1  0  0  0
 32 56  1  0  0  0
 32 57  1  0  0  0
 32 58  1  0  0  0
M  CHG  1  28   1
M  END
> <s_m_entry_id>
208

> <s_m_entry_name>
pocket_pv.19

> <s_m_Source_Path>
/home/bortolaa/Project/GT/mario-master/docking/set505protein_struct_1_site_1_set505ligs_train

> <s_m_Source_File>
pocket_pv.maegz

> <i_m_Source_File_Index>
19

> <From>
www.bindingDB.org

> <BindingDB Reactant_set_id>
7084

> <Ligand InChI>
InChI=1S/C23H27FN4O3/c1-14-8-17(24)19(10-20(14)29)27-23-16-9-21(30-3)22(11-18(16)25-13-26-23)31-12-15-4-6-28(2)7-5-15/h8-11,13,15,29H,4-7,12H2,1-3H3,(H,25,26,27)

> <Ligand InChI Key>
SIABKVPDKZOJCK-UHFFFAOYSA-N

> <BindingDB MonomerID>
4671

> <BindingDB Ligand Name>
4-Anilinoquinazoline 18::4-fluoro-5-({6-methoxy-7-[(1-methylpiperidin-4-yl)methoxy]quinazolin-4-yl}amino)-2-methylphenol

> <Target Name Assigned by Curator or DataSource>
Epidermal growth factor receptor

> <Target Source Organism According to Curator or DataSource>
Homo sapiens

> <Ki (nM)>


> <Kd (nM)>


> <EC50 (nM)>


> <kon (M-1-s-1)>


> <koff (s-1)>


> <pH>


> <Curation/DataSource>
Curated from the literature by BindingDB

> <Article DOI>
10.1021/jm011022e

> <PubChem AID>


> <Patent Number>


> <Authors>
Hennequin, LF; Stokes, ES; Thomas, AP; Johnstone, C; Ple, PA; Ogilvie, DJ; Dukes, M; Wedge, SR; Kendrew, J; Curwen, JO

> <Institution>
AstraZeneca

> <Link to Ligand in BindingDB>
http://www.bindingdb.org/bind/chemsearch/marvin/MolStructure.jsp?monomerid=4671

> <Link to Ligand-Target Pair in BindingDB>
http://www.bindingdb.org/jsp/dbsearch/PrimarySearch_ki.jsp?energyterm=kJ/mole&tag=r21&monomerid=4671&enzyme=Epidermal+growth+factor+receptor&column=ki&startPg=0&Increment=50&submit=Search

> <Ligand HET ID in PDB>


> <PDB ID(s) for Ligand-Target Complex>


> <PubChem CID>
5329044

> <PubChem SID>
8034328

> <ChEBI ID of Ligand>


> <ChEMBL ID of Ligand>


> <DrugBank ID of Ligand>


> <IUPHAR_GRAC ID of Ligand>


> <KEGG ID of Ligand>


> <ZINC ID of Ligand>
ZINC13472790

> <Number of Protein Chains in Target (>
1

> <BindingDB Target Chain Sequence>
MRPSGTAGAALLALLAALCPASRALEEKKVCQGTSNKLTQLGTFEDHFLSLQRMFNNCEVVLGNLEITYVQRNYDLSFLKTIQEVAGYVLIALNTVERIPLENLQIIRGNMYYENSYALAVLSNYDANKTGLKELPMRNLQEILHGAVRFSNNPALCNVESIQWRDIVSSDFLSNMSMDFQNHLGSCQKCDPSCPNGSCWGAGEENCQKLTKIICAQQCSGRCRGKSPSDCCHNQCAAGCTGPRESDCLVCRKFRDEATCKDTCPPLMLYNPTTYQMDVNPEGKYSFGATCVKKCPRNYVVTDHGSCVRACGADSYEMEEDGVRKCKKCEGPCRKVCNGIGIGEFKDSLSINATNIKHFKNCTSISGDLHILPVAFRGDSFTHTPPLDPQELDILKTVKEITGFLLIQAWPENRTDLHAFENLEIIRGRTKQHGQFSLAVVSLNITSLGLRSLKEISDGDVIISGNKNLCYANTINWKKLFGTSGQKTKIISNRGENSCKATGQVCHALCSPEGCWGPEPRDCVSCRNVSRGRECVDKCNLLEGEPREFVENSECIQCHPECLPQAMNITCTGRGPDNCIQCAHYIDGPHCVKTCPAGVMGENNTLVWKYADAGHVCHLCHPNCTYGCTGPGLEGCPTNGPKIPSIATGMVGALLLLLVVALGIGLFMRRRHIVRKRTLRRLLQERELVEPLTPSGEAPNQALLRILKETEFKKIKVLGSGAFGTVYKGLWIPEGEKVKIPVAIKELREATSPKANKEILDEAYVMASVDNPHVCRLLGICLTSTVQLITQLMPFGCLLDYVREHKDNIGSQYLLNWCVQIAKGMNYLEDRRLVHRDLAARNVLVKTPQHVKITDFGLAKLLGAEEKEYHAEGGKVPIKWMALESILHRIYTHQSDVWSYGVTVWELMTFGSKPYDGIPASEISSILEKGERLPQPPICTIDVYMIMVKCWMIDADSRPKFRELIIEFSKMARDPQRYLVIQGDERMHLPSPTDSNFYRALMDEEDMDDVVDADEYLIPQQGFFSSPSTSRTPLLSSLSATSNNSTVACIDRNGLQSCPIKEDSFLQRYSSDPTGALTEDSIDDTFLPVPEYINQSVPKRPAGSVQNPVYHNQPLNPAPSRDPHYQDPHSTAVGNPEYLNTVQPTCVNSTFDSPAHWAQKGSHQISLDNPDYQQDFFPKEAKPNGIFKGSTAENAEYLRVAPQSSEFIGA

> <PDB ID(s) of Target Chain>
1IVO,1M14,1M17,1MOX,1XKK,1Z9I,2GS2,2GS6,2ITW,2ITX,2ITY,2J5E,2J5F,2J6M,2RF9,2RGP,3B2V,3BEL,3GOP,3POZ,3QWQ,3VJO,3W2O,3W2P,3W2Q,3W2R,3W2S,3W32,3W33,4G5J,4I23,4JQ7,4JQ8,4JR3,4JRV,4KRO,4LI5,4RJ4,4RJ5,4RJ6,4RJ7,4RJ8,4TKS,4UIP,4UV7,4WKQ,4WRG,4ZAU,5C8K,5C8M,5C8N,5CAL,5CAN,5CAO,5CAP,5CAQ,5CAS,5CAU,5CAV,5EDP,5EDQ,5EDR,5EM5,5EM6,5EM7,5EM8,5FED,5GNK,5HCX,5HCY,5HCZ,5HIB,5HIC,5UGB,5WB7,5WB8,5Y25,6S89,6S8A

> <UniProt (SwissProt) Recommended Name of Target Chain>
Epidermal growth factor receptor

> <UniProt (SwissProt) Entry Name of Target Chain>
EGFR_HUMAN

> <UniProt (SwissProt) Primary ID of Target Chain>
P00533

> <UniProt (SwissProt) Secondary ID(s) of Target Chain>
O00688,O00732,P06268,Q14225,Q68GS5,Q92795,Q9BZS2,Q9GZX1,Q9H2C9,Q9H3C9,Q9UMD7,Q9UMD8,Q9UMG5

> <UniProt (SwissProt) Alternative ID(s) of Target Chain>


> <UniProt (TrEMBL) Submitted Name of Target Chain>


> <UniProt (TrEMBL) Entry Name of Target Chain>


> <UniProt (TrEMBL) Primary ID of Target Chain>


> <UniProt (TrEMBL) Secondary ID(s) of Target Chain>


> <UniProt (TrEMBL) Alternative ID(s) of Target Chain>


> <training label>
6.52288

> <i_lp_mmshare_version>
54117

> <s_epik_input>
W2NIXTFjKFtPSF0pYyhbQ0gzXSlbY0hdYyhGKWMxW05IXWMobltjSF1uMiljKGMyMylbY0hdYyhPW0NIM10pYyhbY0hdMylPW0NIMl1bQ0hdNFtDSDJdW0NIMl1OKFtDSDNdKVtDSDJdW0NIMl00

> <s_epik_cmdline>
J2VwaWtfcHl0aG9uJywgJy1waHQnLCAnMC4xJywgJy1waCcsICc3LjQnLCAnLXRuJywgJzgnLCAnLW1hJywgJzIwMCcsICctaW1hZScsICc8aW5maWxlLm1hZT4nLCAnLW9tYWUnLCAnPG91dGZpbGUubWFlPic=

> <r_lp_tautomer_probability>
1

> <r_epik_Ionization_Penalty>
  0.0058

> <r_epik_Ionization_Penalty_Charging>
  0.0039

> <r_epik_Ionization_Penalty_Neutral>
  0.0020

> <r_epik_State_Penalty>
  0.0000

> <r_epik_Charging_Adjusted_Penalty>
0.0038691425947202

> <i_epik_Tot_Q>
1

> <i_epik_Tot_abs_Q>
1

> <i_f3d_flags>
0

> <s_lp_Force_Field>
OPLS_2005

> <r_lp_Energy>
33.746158

> <b_lp_Chiralities_Consistent>
1

> <s_lp_Variant>
4-Anilinoquinazoline-2

> <s_i_glide_gridfile>
struct_1_site_1

> <i_i_glide_lignum>
123

> <i_i_glide_rotatable_bonds>
7

> <r_i_docking_score>
-8.31638014009064

> <r_i_glide_ligand_efficiency>
-0.268270327099698

> <r_i_glide_ligand_efficiency_sa>
-0.84273921419705

> <r_i_glide_ligand_efficiency_ln>
-1.87559858803343

> <r_i_glide_gscore>
-8.31638014009064

> <r_i_glide_lipo>
-3.22412678896436

> <r_i_glide_hbond>
-0.393712303774493

> <r_i_glide_metal>
0

> <r_i_glide_rewards>
-1.80302754266039

> <r_i_glide_evdw>
-42.2009048461914

> <r_i_glide_ecoul>
-8.85806179046631

> <r_i_glide_erotb>
0.543241006188111

> <r_i_glide_esite>
0

> <r_i_glide_emodel>
-57.8316819716597

> <r_i_glide_energy>
-51.0589666366577

> <r_i_glide_einternal>
4.73232650756836

> <i_i_glide_confnum>
29

> <i_i_glide_posenum>
297

> <r_i_glide_eff_state_penalty>
0

> <IC50 (nM)>
300

> <PMID>
11881999

> <Temp C>
25

> <r_glide_shape_similarity>
0.800690889358521

> <s_m_subgroup_title>
505 training

> <s_m_subgroupid>
pocket_pv

> <b_m_subgroup_collapsed>
0

$$$$
BindingDB_50095259_mol_1
                    3D
 Schrodinger Suite 2021-2.
 38 40  0  0  1  0            999 V2000
   22.0747   -0.1683   53.5043 C   0  0  0  0  0  0
   23.4384   -0.0976   53.8668 C   0  0  0  0  0  0
   21.2716   -1.1084   54.1829 C   0  0  0  0  0  0
   21.5167    0.6454   52.4999 C   0  0  0  0  0  0
   23.9383   -0.8976   54.8222 N   0  0  0  0  0  0
   19.9115   -1.2072   53.8403 C   0  0  0  0  0  0
   24.2891    0.8466   53.2741 N   0  0  0  0  0  0
   20.1603    0.5214   52.1453 C   0  0  0  0  0  0
   19.3441   -0.3900   52.8372 C   0  0  0  0  0  0
   28.7327   -1.2381   53.3673 C   0  0  0  0  0  0
   21.8031   -1.8900   55.1408 N   0  0  0  0  0  0
   29.3648   -2.2808   53.3585 C   0  0  0  0  0  0
   23.0951   -1.7345   55.4093 C   0  0  0  0  0  0
   25.6828    0.9494   53.3457 C   0  0  0  0  0  0
   27.9092   -0.0507   53.3836 C   0  0  0  0  0  0
   26.5134   -0.1866   53.3340 C   0  0  0  0  0  0
   19.5733    1.2508   51.1403 O   0  0  0  0  0  0
   18.0242   -0.4223   52.4525 O   0  0  0  0  0  0
   27.6682    2.3584   53.4227 C   0  0  0  0  0  0
   26.2718    2.2244   53.3705 C   0  0  0  0  0  0
   28.4907    1.2239   53.4333 C   0  0  0  0  0  0
   20.3983    1.7151   50.0846 C   0  0  0  0  0  0
   17.1154   -1.1553   53.2375 C   0  0  0  0  0  0
   22.1405    1.3500   51.9747 H   0  0  0  0  0  0
   19.3122   -1.9208   54.3819 H   0  0  0  0  0  0
   23.8254    1.6196   52.8288 H   0  0  0  0  0  0
   29.8886   -3.2099   53.3495 H   0  0  0  0  0  0
   23.5084   -2.3743   56.1714 H   0  0  0  0  0  0
   26.0803   -1.1743   53.2760 H   0  0  0  0  0  0
   28.1050    3.3456   53.4514 H   0  0  0  0  0  0
   25.6596    3.1166   53.3620 H   0  0  0  0  0  0
   29.5654    1.3373   53.4647 H   0  0  0  0  0  0
   19.7705    2.0490   49.2612 H   0  0  0  0  0  0
   21.0065    2.5654   50.4053 H   0  0  0  0  0  0
   21.0537    0.9283   49.7023 H   0  0  0  0  0  0
   16.0966   -0.9767   52.8906 H   0  0  0  0  0  0
   17.3069   -2.2275   53.1640 H   0  0  0  0  0  0
   17.1638   -0.8590   54.2845 H   0  0  0  0  0  0
  1  2  2  0  0  0
  1  3  1  0  0  0
  1  4  1  0  0  0
  2  5  1  0  0  0
  2  7  1  0  0  0
  3  6  1  0  0  0
  3 11  2  0  0  0
  4  8  2  0  0  0
  4 24  1  0  0  0
  5 13  2  0  0  0
  6  9  2  0  0  0
  6 25  1  0  0  0
  7 14  1  0  0  0
  7 26  1  0  0  0
  8  9  1  0  0  0
  8 17  1  0  0  0
  9 18  1  0  0  0
 10 12  3  0  0  0
 10 15  1  0  0  0
 11 13  1  0  0  0
 12 27  1  0  0  0
 13 28  1  0  0  0
 14 16  2  0  0  0
 14 20  1  0  0  0
 15 16  1  0  0  0
 15 21  2  0  0  0
 16 29  1  0  0  0
 17 22  1  0  0  0
 18 23  1  0  0  0
 19 20  2  0  0  0
 19 21  1  0  0  0
 19 30  1  0  0  0
 20 31  1  0  0  0
 21 32  1  0  0  0
 22 33  1  0  0  0
 22 34  1  0  0  0
 22 35  1  0  0  0
 23 36  1  0  0  0
 23 37  1  0  0  0
 23 38  1  0  0  0
M  END
> <s_m_entry_id>
209

> <s_m_entry_name>
pocket_pv.20

> <s_m_Source_Path>
/home/bortolaa/Project/GT/mario-master/docking/set505protein_struct_1_site_1_set505ligs_train

> <s_m_Source_File>
pocket_pv.maegz

> <i_m_Source_File_Index>
20

> <From>
www.bindingDB.org

> <BindingDB Reactant_set_id>
50401546

> <Ligand InChI>
InChI=1S/C18H15N3O2/c1-4-12-6-5-7-13(8-12)21-18-14-9-16(22-2)17(23-3)10-15(14)19-11-20-18/h1,5-11H,2-3H3,(H,19,20,21)

> <Ligand InChI Key>
XOTGKYTUNDYTBS-UHFFFAOYSA-N

> <BindingDB MonomerID>
50095259

> <BindingDB Ligand Name>
(6,7-Dimethoxy-quinazolin-4-yl)-(3-ethynyl-phenyl)-amine::CHEMBL304929::N-(3-ethynylphenyl)-6,7-dimethoxyquinazolin-4-amine

> <Target Name Assigned by Curator or DataSource>
Epidermal growth factor receptor

> <Target Source Organism According to Curator or DataSource>
Homo sapiens

> <Ki (nM)>


> <Kd (nM)>


> <EC50 (nM)>


> <kon (M-1-s-1)>


> <koff (s-1)>


> <pH>


> <Temp C>


> <Curation/DataSource>
ChEMBL

> <Article DOI>
10.1016/j.bmcl.2007.08.061

> <PubChem AID>


> <Patent Number>


> <Authors>
Liu, LT; Yuan, TT; Liu, HH; Chen, SF; Wu, YT

> <Institution>
Development Center for Biotechnology

> <Link to Ligand in BindingDB>
http://www.bindingdb.org/bind/chemsearch/marvin/MolStructure.jsp?monomerid=50095259

> <Link to Ligand-Target Pair in BindingDB>
http://www.bindingdb.org/jsp/dbsearch/PrimarySearch_ki.jsp?energyterm=kJ/mole&tag=r21&monomerid=50095259&enzyme=Epidermal+growth+factor+receptor&column=ki&startPg=0&Increment=50&submit=Search

> <Ligand HET ID in PDB>


> <PDB ID(s) for Ligand-Target Complex>


> <PubChem CID>
16045442

> <PubChem SID>
103992997

> <ChEBI ID of Ligand>


> <ChEMBL ID of Ligand>
CHEMBL304929

> <DrugBank ID of Ligand>


> <IUPHAR_GRAC ID of Ligand>


> <KEGG ID of Ligand>


> <ZINC ID of Ligand>
ZINC00006716

> <Number of Protein Chains in Target (>
1

> <BindingDB Target Chain Sequence>
MRPSGTAGAALLALLAALCPASRALEEKKVCQGTSNKLTQLGTFEDHFLSLQRMFNNCEVVLGNLEITYVQRNYDLSFLKTIQEVAGYVLIALNTVERIPLENLQIIRGNMYYENSYALAVLSNYDANKTGLKELPMRNLQEILHGAVRFSNNPALCNVESIQWRDIVSSDFLSNMSMDFQNHLGSCQKCDPSCPNGSCWGAGEENCQKLTKIICAQQCSGRCRGKSPSDCCHNQCAAGCTGPRESDCLVCRKFRDEATCKDTCPPLMLYNPTTYQMDVNPEGKYSFGATCVKKCPRNYVVTDHGSCVRACGADSYEMEEDGVRKCKKCEGPCRKVCNGIGIGEFKDSLSINATNIKHFKNCTSISGDLHILPVAFRGDSFTHTPPLDPQELDILKTVKEITGFLLIQAWPENRTDLHAFENLEIIRGRTKQHGQFSLAVVSLNITSLGLRSLKEISDGDVIISGNKNLCYANTINWKKLFGTSGQKTKIISNRGENSCKATGQVCHALCSPEGCWGPEPRDCVSCRNVSRGRECVDKCNLLEGEPREFVENSECIQCHPECLPQAMNITCTGRGPDNCIQCAHYIDGPHCVKTCPAGVMGENNTLVWKYADAGHVCHLCHPNCTYGCTGPGLEGCPTNGPKIPSIATGMVGALLLLLVVALGIGLFMRRRHIVRKRTLRRLLQERELVEPLTPSGEAPNQALLRILKETEFKKIKVLGSGAFGTVYKGLWIPEGEKVKIPVAIKELREATSPKANKEILDEAYVMASVDNPHVCRLLGICLTSTVQLITQLMPFGCLLDYVREHKDNIGSQYLLNWCVQIAKGMNYLEDRRLVHRDLAARNVLVKTPQHVKITDFGLAKLLGAEEKEYHAEGGKVPIKWMALESILHRIYTHQSDVWSYGVTVWELMTFGSKPYDGIPASEISSILEKGERLPQPPICTIDVYMIMVKCWMIDADSRPKFRELIIEFSKMARDPQRYLVIQGDERMHLPSPTDSNFYRALMDEEDMDDVVDADEYLIPQQGFFSSPSTSRTPLLSSLSATSNNSTVACIDRNGLQSCPIKEDSFLQRYSSDPTGALTEDSIDDTFLPVPEYINQSVPKRPAGSVQNPVYHNQPLNPAPSRDPHYQDPHSTAVGNPEYLNTVQPTCVNSTFDSPAHWAQKGSHQISLDNPDYQQDFFPKEAKPNGIFKGSTAENAEYLRVAPQSSEFIGA

> <PDB ID(s) of Target Chain>
1IVO,1M14,1M17,1MOX,1XKK,1Z9I,2GS2,2GS6,2ITW,2ITX,2ITY,2J5E,2J5F,2J6M,2RF9,2RGP,3B2V,3BEL,3GOP,3POZ,3QWQ,3VJO,3W2O,3W2P,3W2Q,3W2R,3W2S,3W32,3W33,4G5J,4I23,4JQ7,4JQ8,4JR3,4JRV,4KRO,4LI5,4RJ4,4RJ5,4RJ6,4RJ7,4RJ8,4TKS,4UIP,4UV7,4WKQ,4WRG,4ZAU,5C8K,5C8M,5C8N,5CAL,5CAN,5CAO,5CAP,5CAQ,5CAS,5CAU,5CAV,5EDP,5EDQ,5EDR,5EM5,5EM6,5EM7,5EM8,5FED,5GNK,5HCX,5HCY,5HCZ,5HIB,5HIC,5UGB,5WB7,5WB8,5Y25,6S89,6S8A

> <UniProt (SwissProt) Recommended Name of Target Chain>
Epidermal growth factor receptor

> <UniProt (SwissProt) Entry Name of Target Chain>
EGFR_HUMAN

> <UniProt (SwissProt) Primary ID of Target Chain>
P00533

> <UniProt (SwissProt) Secondary ID(s) of Target Chain>
O00688,O00732,P06268,Q14225,Q68GS5,Q92795,Q9BZS2,Q9GZX1,Q9H2C9,Q9H3C9,Q9UMD7,Q9UMD8,Q9UMG5

> <UniProt (SwissProt) Alternative ID(s) of Target Chain>


> <UniProt (TrEMBL) Submitted Name of Target Chain>


> <UniProt (TrEMBL) Entry Name of Target Chain>


> <UniProt (TrEMBL) Primary ID of Target Chain>


> <UniProt (TrEMBL) Secondary ID(s) of Target Chain>


> <UniProt (TrEMBL) Alternative ID(s) of Target Chain>


> <training label>
7.5376

> <i_lp_mmshare_version>
54117

> <s_epik_input>
W0NIM11PYyhbY0hdMSljKE9bQ0gzXSlbY0hdYyhjMTIpbltjSF1uYzJbTkhdYzNbY0hdYyhDI1tDSF0pW2NIXVtjSF1bY0hdMw==

> <s_epik_cmdline>
J2VwaWtfcHl0aG9uJywgJy1waHQnLCAnMC4xJywgJy1waCcsICc3LjQnLCAnLXRuJywgJzgnLCAnLW1hJywgJzIwMCcsICctaW1hZScsICc8aW5maWxlLm1hZT4nLCAnLW9tYWUnLCAnPG91dGZpbGUubWFlPic=

> <r_lp_tautomer_probability>
1

> <r_epik_Ionization_Penalty>
  0.0006

> <r_epik_Ionization_Penalty_Charging>
  0.0000

> <r_epik_Ionization_Penalty_Neutral>
  0.0006

> <r_epik_State_Penalty>
  0.0000

> <r_epik_Charging_Adjusted_Penalty>
0

> <i_epik_Tot_Q>
0

> <i_epik_Tot_abs_Q>
0

> <i_f3d_flags>
0

> <s_lp_Force_Field>
OPLS_2005

> <r_lp_Energy>
19.673687

> <b_lp_Chiralities_Consistent>
1

> <s_lp_Variant>
BindingDB_50095259_mol_1-1

> <s_i_glide_gridfile>
struct_1_site_1

> <i_i_glide_lignum>
199

> <i_i_glide_rotatable_bonds>
5

> <r_i_docking_score>
-8.30404009341456

> <r_i_glide_ligand_efficiency>
-0.361045221452807

> <r_i_glide_ligand_efficiency_sa>
-1.0267645824497

> <r_i_glide_ligand_efficiency_ln>
-2.0079921914602

> <r_i_glide_gscore>
-8.30404009341456

> <r_i_glide_lipo>
-3.24317638988418

> <r_i_glide_hbond>
-0.32

> <r_i_glide_metal>
0

> <r_i_glide_rewards>
-2.48861026673262

> <r_i_glide_evdw>
-40.3420944213867

> <r_i_glide_ecoul>
-5.52693939208984

> <r_i_glide_erotb>
0.593892193085051

> <r_i_glide_esite>
0

> <r_i_glide_emodel>
-51.4274080059758

> <r_i_glide_energy>
-45.8690338134766

> <r_i_glide_einternal>
2.83903241157532

> <i_i_glide_confnum>
2

> <i_i_glide_posenum>
384

> <r_i_glide_eff_state_penalty>
0

> <IC50 (nM)>
29

> <PMID>
17889528

> <r_glide_shape_similarity>
0.831309974193573

> <s_m_subgroup_title>
505 training

> <s_m_subgroupid>
pocket_pv

> <b_m_subgroup_collapsed>
0

$$$$
BindingDB_50307769_mol_1
                    3D
 Schrodinger Suite 2021-2.
 44 46  0  0  1  0            999 V2000
   20.1716    0.4500   52.0973 C   0  0  0  0  0  0
   19.3484   -0.4104   52.8298 C   0  0  0  0  0  0
   19.9144   -1.2048   53.8424 C   0  0  0  0  0  0
   21.5224    0.6138   52.4607 C   0  0  0  0  0  0
   22.0757   -0.1642   53.4967 C   0  0  0  0  0  0
   21.2725   -1.1011   54.1788 C   0  0  0  0  0  0
   21.8069   -1.8794   55.1359 N   0  0  0  0  0  0
   23.1005   -1.7260   55.4054 C   0  0  0  0  0  0
   23.9409   -0.8835   54.8240 N   0  0  0  0  0  0
   23.4377   -0.0907   53.8668 C   0  0  0  0  0  0
   19.5649    1.0245   51.0131 O   0  0  0  0  0  0
   18.0212   -0.4418   52.4605 O   0  0  0  0  0  0
   17.1264   -1.1775   53.2595 C   0  0  0  0  0  0
   24.2849    0.8522   53.2738 N   0  0  0  0  0  0
   25.6772    0.9449   53.3396 C   0  0  0  0  0  0
   26.5029   -0.1944   53.3237 C   0  0  0  0  0  0
   27.8963   -0.0651   53.3740 C   0  0  0  0  0  0
   28.4699    1.2048   53.4590 C   0  0  0  0  0  0
   27.6688    2.3501   53.4292 C   0  0  0  0  0  0
   26.2728    2.2183   53.3671 C   0  0  0  0  0  0
   20.3005    1.7941   50.0717 C   0  0  0  0  0  0
   19.2743    2.6838   49.3428 C   0  0  0  0  0  0
   18.6315    3.6906   50.3158 C   0  0  0  0  0  0
   17.8512    4.6457   49.7924 N   0  0  0  0  0  0
   18.8152    3.6016   51.5431 O   0  0  0  0  0  0
   16.8594    5.1337   50.6887 O   0  0  0  0  0  0
   29.7970    1.3100   53.5828 F   0  0  0  0  0  0
   28.8934   -1.4667   53.3722 Cl  0  0  0  0  0  0
   19.3112   -1.9042   54.3939 H   0  0  0  0  0  0
   22.1542    1.2851   51.9027 H   0  0  0  0  0  0
   23.5088   -2.3588   56.1791 H   0  0  0  0  0  0
   16.1112   -1.0024   52.9039 H   0  0  0  0  0  0
   17.3227   -2.2514   53.1749 H   0  0  0  0  0  0
   17.1742   -0.8746   54.3051 H   0  0  0  0  0  0
   23.8189    1.6246   52.8379 H   0  0  0  0  0  0
   26.0765   -1.1847   53.2668 H   0  0  0  0  0  0
   28.1112    3.3360   53.4839 H   0  0  0  0  0  0
   25.6603    3.1092   53.3588 H   0  0  0  0  0  0
   20.8164    1.1335   49.3767 H   0  0  0  0  0  0
   21.0440    2.4469   50.5350 H   0  0  0  0  0  0
   18.4916    2.0654   48.8918 H   0  0  0  0  0  0
   19.7659    3.2426   48.5501 H   0  0  0  0  0  0
   17.5002    4.6385   48.8429 H   0  0  0  0  0  0
   16.6847    6.0495   50.4108 H   0  0  0  0  0  0
  1  2  2  0  0  0
  1  4  1  0  0  0
  1 11  1  0  0  0
  2  3  1  0  0  0
  2 12  1  0  0  0
  3  6  2  0  0  0
  3 29  1  0  0  0
  4  5  2  0  0  0
  4 30  1  0  0  0
  5  6  1  0  0  0
  5 10  1  0  0  0
  6  7  1  0  0  0
  7  8  2  0  0  0
  8  9  1  0  0  0
  8 31  1  0  0  0
  9 10  2  0  0  0
 10 14  1  0  0  0
 11 21  1  0  0  0
 12 13  1  0  0  0
 13 32  1  0  0  0
 13 33  1  0  0  0
 13 34  1  0  0  0
 14 15  1  0  0  0
 14 35  1  0  0  0
 15 16  2  0  0  0
 15 20  1  0  0  0
 16 17  1  0  0  0
 16 36  1  0  0  0
 17 18  2  0  0  0
 17 28  1  0  0  0
 18 19  1  0  0  0
 18 27  1  0  0  0
 19 20  2  0  0  0
 19 37  1  0  0  0
 20 38  1  0  0  0
 21 22  1  0  0  0
 21 39  1  0  0  0
 21 40  1  0  0  0
 22 23  1  0  0  0
 22 41  1  0  0  0
 22 42  1  0  0  0
 23 24  1  0  0  0
 23 25  2  0  0  0
 24 26  1  0  0  0
 24 43  1  0  0  0
 26 44  1  0  0  0
M  END
> <s_m_entry_id>
210

> <s_m_entry_name>
pocket_pv.21

> <s_m_Source_Path>
/home/bortolaa/Project/GT/mario-master/docking/set505protein_struct_1_site_1_set505ligs_train

> <s_m_Source_File>
pocket_pv.maegz

> <i_m_Source_File_Index>
21

> <From>
www.bindingDB.org

> <BindingDB Reactant_set_id>
50552090

> <Ligand InChI>
InChI=1S/C18H16ClFN4O4/c1-27-15-8-14-11(7-16(15)28-5-4-17(25)24-26)18(22-9-21-14)23-10-2-3-13(20)12(19)6-10/h2-3,6-9,26H,4-5H2,1H3,(H,24,25)(H,21,22,23)

> <Ligand InChI Key>
ZAFWWWJOUAFSJP-UHFFFAOYSA-N

> <BindingDB MonomerID>
50307769

> <BindingDB Ligand Name>
3-(4-(3-chloro-4-fluorophenylamino)-7-methoxyquinazolin-6-yloxy)-N-hydroxypropanamide::CHEMBL597551

> <Target Name Assigned by Curator or DataSource>
Epidermal growth factor receptor

> <Target Source Organism According to Curator or DataSource>
Homo sapiens

> <Ki (nM)>


> <Kd (nM)>


> <EC50 (nM)>


> <kon (M-1-s-1)>


> <koff (s-1)>


> <pH>


> <Temp C>


> <Curation/DataSource>
ChEMBL

> <Article DOI>
10.1021/jm901453q

> <PubChem AID>


> <Patent Number>


> <Authors>
Cai, X; Zhai, HX; Wang, J; Forrester, J; Qu, H; Yin, L; Lai, CJ; Bao, R; Qian, C

> <Institution>
Curis Inc

> <Link to Ligand in BindingDB>
http://www.bindingdb.org/bind/chemsearch/marvin/MolStructure.jsp?monomerid=50307769

> <Link to Ligand-Target Pair in BindingDB>
http://www.bindingdb.org/jsp/dbsearch/PrimarySearch_ki.jsp?energyterm=kJ/mole&tag=r21&monomerid=50307769&enzyme=Epidermal+growth+factor+receptor&column=ki&startPg=0&Increment=50&submit=Search

> <Ligand HET ID in PDB>


> <PDB ID(s) for Ligand-Target Complex>


> <PubChem CID>
24944848

> <PubChem SID>
104162130

> <ChEBI ID of Ligand>


> <ChEMBL ID of Ligand>
CHEMBL597551

> <DrugBank ID of Ligand>


> <IUPHAR_GRAC ID of Ligand>


> <KEGG ID of Ligand>


> <ZINC ID of Ligand>
ZINC45366596

> <Number of Protein Chains in Target (>
1

> <BindingDB Target Chain Sequence>
MRPSGTAGAALLALLAALCPASRALEEKKVCQGTSNKLTQLGTFEDHFLSLQRMFNNCEVVLGNLEITYVQRNYDLSFLKTIQEVAGYVLIALNTVERIPLENLQIIRGNMYYENSYALAVLSNYDANKTGLKELPMRNLQEILHGAVRFSNNPALCNVESIQWRDIVSSDFLSNMSMDFQNHLGSCQKCDPSCPNGSCWGAGEENCQKLTKIICAQQCSGRCRGKSPSDCCHNQCAAGCTGPRESDCLVCRKFRDEATCKDTCPPLMLYNPTTYQMDVNPEGKYSFGATCVKKCPRNYVVTDHGSCVRACGADSYEMEEDGVRKCKKCEGPCRKVCNGIGIGEFKDSLSINATNIKHFKNCTSISGDLHILPVAFRGDSFTHTPPLDPQELDILKTVKEITGFLLIQAWPENRTDLHAFENLEIIRGRTKQHGQFSLAVVSLNITSLGLRSLKEISDGDVIISGNKNLCYANTINWKKLFGTSGQKTKIISNRGENSCKATGQVCHALCSPEGCWGPEPRDCVSCRNVSRGRECVDKCNLLEGEPREFVENSECIQCHPECLPQAMNITCTGRGPDNCIQCAHYIDGPHCVKTCPAGVMGENNTLVWKYADAGHVCHLCHPNCTYGCTGPGLEGCPTNGPKIPSIATGMVGALLLLLVVALGIGLFMRRRHIVRKRTLRRLLQERELVEPLTPSGEAPNQALLRILKETEFKKIKVLGSGAFGTVYKGLWIPEGEKVKIPVAIKELREATSPKANKEILDEAYVMASVDNPHVCRLLGICLTSTVQLITQLMPFGCLLDYVREHKDNIGSQYLLNWCVQIAKGMNYLEDRRLVHRDLAARNVLVKTPQHVKITDFGLAKLLGAEEKEYHAEGGKVPIKWMALESILHRIYTHQSDVWSYGVTVWELMTFGSKPYDGIPASEISSILEKGERLPQPPICTIDVYMIMVKCWMIDADSRPKFRELIIEFSKMARDPQRYLVIQGDERMHLPSPTDSNFYRALMDEEDMDDVVDADEYLIPQQGFFSSPSTSRTPLLSSLSATSNNSTVACIDRNGLQSCPIKEDSFLQRYSSDPTGALTEDSIDDTFLPVPEYINQSVPKRPAGSVQNPVYHNQPLNPAPSRDPHYQDPHSTAVGNPEYLNTVQPTCVNSTFDSPAHWAQKGSHQISLDNPDYQQDFFPKEAKPNGIFKGSTAENAEYLRVAPQSSEFIGA

> <PDB ID(s) of Target Chain>
1IVO,1M14,1M17,1MOX,1XKK,1Z9I,2GS2,2GS6,2ITW,2ITX,2ITY,2J5E,2J5F,2J6M,2RF9,2RGP,3B2V,3BEL,3GOP,3POZ,3QWQ,3VJO,3W2O,3W2P,3W2Q,3W2R,3W2S,3W32,3W33,4G5J,4I23,4JQ7,4JQ8,4JR3,4JRV,4KRO,4LI5,4RJ4,4RJ5,4RJ6,4RJ7,4RJ8,4TKS,4UIP,4UV7,4WKQ,4WRG,4ZAU,5C8K,5C8M,5C8N,5CAL,5CAN,5CAO,5CAP,5CAQ,5CAS,5CAU,5CAV,5EDP,5EDQ,5EDR,5EM5,5EM6,5EM7,5EM8,5FED,5GNK,5HCX,5HCY,5HCZ,5HIB,5HIC,5UGB,5WB7,5WB8,5Y25,6S89,6S8A

> <UniProt (SwissProt) Recommended Name of Target Chain>
Epidermal growth factor receptor

> <UniProt (SwissProt) Entry Name of Target Chain>
EGFR_HUMAN

> <UniProt (SwissProt) Primary ID of Target Chain>
P00533

> <UniProt (SwissProt) Secondary ID(s) of Target Chain>
O00688,O00732,P06268,Q14225,Q68GS5,Q92795,Q9BZS2,Q9GZX1,Q9H2C9,Q9H3C9,Q9UMD7,Q9UMD8,Q9UMG5

> <UniProt (SwissProt) Alternative ID(s) of Target Chain>


> <UniProt (TrEMBL) Submitted Name of Target Chain>


> <UniProt (TrEMBL) Entry Name of Target Chain>


> <UniProt (TrEMBL) Primary ID of Target Chain>


> <UniProt (TrEMBL) Secondary ID(s) of Target Chain>


> <UniProt (TrEMBL) Alternative ID(s) of Target Chain>


> <training label>
8.14874

> <i_lp_mmshare_version>
54117

> <s_epik_input>
W09IXVtOSF1DKD1PKVtDSDJdW0NIMl1PYyhbY0hdMSljKE9bQ0gzXSlbY0hdYyhjMTIpbltjSF1uYzJbTkhdYzNbY0hdYyhDbCljKEYpW2NIXVtjSF0z

> <s_epik_cmdline>
J2VwaWtfcHl0aG9uJywgJy1waHQnLCAnMC4xJywgJy1waCcsICc3LjQnLCAnLXRuJywgJzgnLCAnLW1hJywgJzIwMCcsICctaW1hZScsICc8aW5maWxlLm1hZT4nLCAnLW9tYWUnLCAnPG91dGZpbGUubWFlPic=

> <r_lp_tautomer_probability>
1

> <r_epik_Ionization_Penalty>
  0.0170

> <r_epik_Ionization_Penalty_Charging>
  0.0000

> <r_epik_Ionization_Penalty_Neutral>
  0.0170

> <r_epik_State_Penalty>
  0.0000

> <r_epik_Charging_Adjusted_Penalty>
0

> <i_epik_Tot_Q>
0

> <i_epik_Tot_abs_Q>
0

> <i_f3d_flags>
0

> <s_lp_Force_Field>
OPLS_2005

> <r_lp_Energy>
24.524567

> <b_lp_Chiralities_Consistent>
1

> <s_lp_Variant>
BindingDB_50307769_mol_1-1

> <s_i_glide_gridfile>
struct_1_site_1

> <i_i_glide_lignum>
244

> <i_i_glide_rotatable_bonds>
9

> <r_i_docking_score>
-8.27050216134707

> <r_i_glide_ligand_efficiency>
-0.295375077190967

> <r_i_glide_ligand_efficiency_sa>
-0.896932700968758

> <r_i_glide_ligand_efficiency_ln>
-1.90907473133409

> <r_i_glide_gscore>
-8.27050216134707

> <r_i_glide_lipo>
-2.93608829188306

> <r_i_glide_hbond>
-0.298081288974566

> <r_i_glide_metal>
0

> <r_i_glide_rewards>
-1.80561682528956

> <r_i_glide_evdw>
-42.6228408813477

> <r_i_glide_ecoul>
-12.1492824554443

> <r_i_glide_erotb>
0.831870878990403

> <r_i_glide_esite>
-0.109052221806246

> <r_i_glide_emodel>
-68.1255663308986

> <r_i_glide_energy>
-54.772123336792

> <r_i_glide_einternal>
4.98131990432739

> <i_i_glide_confnum>
139

> <i_i_glide_posenum>
7

> <r_i_glide_eff_state_penalty>
0

> <IC50 (nM)>
7.1

> <PMID>
20143778

> <s_epik_Chemistry_Notes>
This compound has a N-S or N-O group and may undergo hydrolysis at high or low pH.

> <r_glide_shape_similarity>
0.851840436458588

> <s_m_subgroup_title>
505 training

> <s_m_subgroupid>
pocket_pv

> <b_m_subgroup_collapsed>
0

$$$$
BindingDB_50428419_mol_1
                    3D
 Schrodinger Suite 2021-2.
 37 39  0  0  1  0            999 V2000
   19.5709    1.2472   51.1346 O   0  0  0  0  0  0
   21.8025   -1.8917   55.1370 N   0  0  0  0  0  0
   20.4013    1.7506   50.0990 C   0  0  0  0  0  0
   21.5162    0.6430   52.4965 C   0  0  0  0  0  0
   19.3425   -0.3870   52.8375 C   0  0  0  0  0  0
   21.2721   -1.1098   54.1793 C   0  0  0  0  0  0
   24.2885    0.8466   53.2751 N   0  0  0  0  0  0
   17.1144   -1.1548   53.2457 C   0  0  0  0  0  0
   18.0190   -0.4062   52.4668 O   0  0  0  0  0  0
   23.0942   -1.7352   55.4075 C   0  0  0  0  0  0
   23.4376   -0.0981   53.8655 C   0  0  0  0  0  0
   22.0742   -0.1676   53.5025 C   0  0  0  0  0  0
   23.9382   -0.8979   54.8211 N   0  0  0  0  0  0
   20.1596    0.5182   52.1404 C   0  0  0  0  0  0
   19.9106   -1.2060   53.8403 C   0  0  0  0  0  0
   25.6822    0.9493   53.3434 C   0  0  0  0  0  0
   26.5123   -0.1875   53.3328 C   0  0  0  0  0  0
   27.9085   -0.0511   53.3810 C   0  0  0  0  0  0
   28.4887    1.2242   53.4356 C   0  0  0  0  0  0
   27.6683    2.3618   53.4261 C   0  0  0  0  0  0
   26.2715    2.2248   53.3711 C   0  0  0  0  0  0
   28.7417   -1.2330   53.3740 C   0  0  0  0  0  0
   29.4073   -2.1746   53.3735 N   0  0  0  0  0  0
   19.7843    2.0897   49.2666 H   0  0  0  0  0  0
   20.9818    2.6087   50.4468 H   0  0  0  0  0  0
   21.0830    0.9848   49.7180 H   0  0  0  0  0  0
   22.1384    1.3513   51.9740 H   0  0  0  0  0  0
   23.8216    1.6215   52.8381 H   0  0  0  0  0  0
   16.1003   -0.9832   52.8878 H   0  0  0  0  0  0
   17.3176   -2.2228   53.1585 H   0  0  0  0  0  0
   17.1467   -0.8680   54.2971 H   0  0  0  0  0  0
   23.5027   -2.3784   56.1727 H   0  0  0  0  0  0
   19.3087   -1.9172   54.3852 H   0  0  0  0  0  0
   26.0775   -1.1762   53.2818 H   0  0  0  0  0  0
   29.5645    1.3375   53.4794 H   0  0  0  0  0  0
   28.1082    3.3503   53.4622 H   0  0  0  0  0  0
   25.6590    3.1155   53.3648 H   0  0  0  0  0  0
  1  3  1  0  0  0
  1 14  1  0  0  0
  2  6  1  0  0  0
  2 10  2  0  0  0
  3 24  1  0  0  0
  3 25  1  0  0  0
  3 26  1  0  0  0
  4 12  2  0  0  0
  4 14  1  0  0  0
  4 27  1  0  0  0
  5  9  1  0  0  0
  5 14  2  0  0  0
  5 15  1  0  0  0
  6 12  1  0  0  0
  6 15  2  0  0  0
  7 11  1  0  0  0
  7 16  1  0  0  0
  7 28  1  0  0  0
  8  9  1  0  0  0
  8 29  1  0  0  0
  8 30  1  0  0  0
  8 31  1  0  0  0
 10 13  1  0  0  0
 10 32  1  0  0  0
 11 12  1  0  0  0
 11 13  2  0  0  0
 15 33  1  0  0  0
 16 17  2  0  0  0
 16 21  1  0  0  0
 17 18  1  0  0  0
 17 34  1  0  0  0
 18 19  2  0  0  0
 18 22  1  0  0  0
 19 20  1  0  0  0
 19 35  1  0  0  0
 20 21  2  0  0  0
 20 36  1  0  0  0
 21 37  1  0  0  0
 22 23  3  0  0  0
M  END
> <s_m_entry_id>
211

> <s_m_entry_name>
pocket_pv.22

> <s_m_Source_Path>
/home/bortolaa/Project/GT/mario-master/docking/set505protein_struct_1_site_1_set505ligs_train

> <s_m_Source_File>
pocket_pv.maegz

> <i_m_Source_File_Index>
22

> <From>
www.bindingDB.org

> <BindingDB Reactant_set_id>
51049787

> <Ligand InChI>
InChI=1S/C17H14N4O2/c1-22-15-7-13-14(8-16(15)23-2)19-10-20-17(13)21-12-5-3-4-11(6-12)9-18/h3-8,10H,1-2H3,(H,19,20,21)

> <Ligand InChI Key>
DTUCHVRTWHBOKV-UHFFFAOYSA-N

> <BindingDB MonomerID>
50428419

> <BindingDB Ligand Name>
CHEMBL2333998

> <Target Name Assigned by Curator or DataSource>
Epidermal growth factor receptor

> <Target Source Organism According to Curator or DataSource>
Homo sapiens

> <Ki (nM)>


> <Kd (nM)>


> <EC50 (nM)>


> <kon (M-1-s-1)>


> <koff (s-1)>


> <pH>


> <Temp C>


> <Curation/DataSource>
ChEMBL

> <Article DOI>
10.1016/j.ejmech.2012.07.036

> <PubChem AID>


> <Patent Number>


> <Authors>
Lu, S; Zheng, W; Ji, L; Luo, Q; Hao, X; Li, X; Wang, F

> <Institution>
Chinese Academy of Sciences

> <Link to Ligand in BindingDB>
http://www.bindingdb.org/bind/chemsearch/marvin/MolStructure.jsp?monomerid=50428419

> <Link to Ligand-Target Pair in BindingDB>
http://www.bindingdb.org/jsp/dbsearch/PrimarySearch_ki.jsp?energyterm=kJ/mole&tag=r21&monomerid=50428419&enzyme=Epidermal+growth+factor+receptor&column=ki&startPg=0&Increment=50&submit=Search

> <Ligand HET ID in PDB>


> <PDB ID(s) for Ligand-Target Complex>


> <PubChem CID>
11312797

> <PubChem SID>
164157294

> <ChEBI ID of Ligand>


> <ChEMBL ID of Ligand>
CHEMBL2333998

> <DrugBank ID of Ligand>


> <IUPHAR_GRAC ID of Ligand>


> <KEGG ID of Ligand>


> <ZINC ID of Ligand>
ZINC95586969

> <Number of Protein Chains in Target (>
1

> <BindingDB Target Chain Sequence>
MRPSGTAGAALLALLAALCPASRALEEKKVCQGTSNKLTQLGTFEDHFLSLQRMFNNCEVVLGNLEITYVQRNYDLSFLKTIQEVAGYVLIALNTVERIPLENLQIIRGNMYYENSYALAVLSNYDANKTGLKELPMRNLQEILHGAVRFSNNPALCNVESIQWRDIVSSDFLSNMSMDFQNHLGSCQKCDPSCPNGSCWGAGEENCQKLTKIICAQQCSGRCRGKSPSDCCHNQCAAGCTGPRESDCLVCRKFRDEATCKDTCPPLMLYNPTTYQMDVNPEGKYSFGATCVKKCPRNYVVTDHGSCVRACGADSYEMEEDGVRKCKKCEGPCRKVCNGIGIGEFKDSLSINATNIKHFKNCTSISGDLHILPVAFRGDSFTHTPPLDPQELDILKTVKEITGFLLIQAWPENRTDLHAFENLEIIRGRTKQHGQFSLAVVSLNITSLGLRSLKEISDGDVIISGNKNLCYANTINWKKLFGTSGQKTKIISNRGENSCKATGQVCHALCSPEGCWGPEPRDCVSCRNVSRGRECVDKCNLLEGEPREFVENSECIQCHPECLPQAMNITCTGRGPDNCIQCAHYIDGPHCVKTCPAGVMGENNTLVWKYADAGHVCHLCHPNCTYGCTGPGLEGCPTNGPKIPSIATGMVGALLLLLVVALGIGLFMRRRHIVRKRTLRRLLQERELVEPLTPSGEAPNQALLRILKETEFKKIKVLGSGAFGTVYKGLWIPEGEKVKIPVAIKELREATSPKANKEILDEAYVMASVDNPHVCRLLGICLTSTVQLITQLMPFGCLLDYVREHKDNIGSQYLLNWCVQIAKGMNYLEDRRLVHRDLAARNVLVKTPQHVKITDFGLAKLLGAEEKEYHAEGGKVPIKWMALESILHRIYTHQSDVWSYGVTVWELMTFGSKPYDGIPASEISSILEKGERLPQPPICTIDVYMIMVKCWMIDADSRPKFRELIIEFSKMARDPQRYLVIQGDERMHLPSPTDSNFYRALMDEEDMDDVVDADEYLIPQQGFFSSPSTSRTPLLSSLSATSNNSTVACIDRNGLQSCPIKEDSFLQRYSSDPTGALTEDSIDDTFLPVPEYINQSVPKRPAGSVQNPVYHNQPLNPAPSRDPHYQDPHSTAVGNPEYLNTVQPTCVNSTFDSPAHWAQKGSHQISLDNPDYQQDFFPKEAKPNGIFKGSTAENAEYLRVAPQSSEFIGA

> <PDB ID(s) of Target Chain>
1IVO,1M14,1M17,1MOX,1XKK,1Z9I,2GS2,2GS6,2ITW,2ITX,2ITY,2J5E,2J5F,2J6M,2RF9,2RGP,3B2V,3BEL,3GOP,3POZ,3QWQ,3VJO,3W2O,3W2P,3W2Q,3W2R,3W2S,3W32,3W33,4G5J,4I23,4JQ7,4JQ8,4JR3,4JRV,4KRO,4LI5,4RJ4,4RJ5,4RJ6,4RJ7,4RJ8,4TKS,4UIP,4UV7,4WKQ,4WRG,4ZAU,5C8K,5C8M,5C8N,5CAL,5CAN,5CAO,5CAP,5CAQ,5CAS,5CAU,5CAV,5EDP,5EDQ,5EDR,5EM5,5EM6,5EM7,5EM8,5FED,5GNK,5HCX,5HCY,5HCZ,5HIB,5HIC,5UGB,5WB7,5WB8,5Y25,6S89,6S8A

> <UniProt (SwissProt) Recommended Name of Target Chain>
Epidermal growth factor receptor

> <UniProt (SwissProt) Entry Name of Target Chain>
EGFR_HUMAN

> <UniProt (SwissProt) Primary ID of Target Chain>
P00533

> <UniProt (SwissProt) Secondary ID(s) of Target Chain>
O00688,O00732,P06268,Q14225,Q68GS5,Q92795,Q9BZS2,Q9GZX1,Q9H2C9,Q9H3C9,Q9UMD7,Q9UMD8,Q9UMG5

> <UniProt (SwissProt) Alternative ID(s) of Target Chain>


> <UniProt (TrEMBL) Submitted Name of Target Chain>


> <UniProt (TrEMBL) Entry Name of Target Chain>


> <UniProt (TrEMBL) Primary ID of Target Chain>


> <UniProt (TrEMBL) Secondary ID(s) of Target Chain>


> <UniProt (TrEMBL) Alternative ID(s) of Target Chain>


> <training label>
6.38405

> <i_lp_mmshare_version>
54117

> <s_epik_input>
W0NIM11PYyhbY0hdMSljKE9bQ0gzXSlbY0hdYyhjMTIpYyhuW2NIXW4yKVtOSF1jM1tjSF1jKEMjTilbY0hdW2NIXVtjSF0z

> <s_epik_cmdline>
J2VwaWtfcHl0aG9uJywgJy1waHQnLCAnMC4xJywgJy1waCcsICc3LjQnLCAnLXRuJywgJzgnLCAnLW1hJywgJzIwMCcsICctaW1hZScsICc8aW5maWxlLm1hZT4nLCAnLW9tYWUnLCAnPG91dGZpbGUubWFlPic=

> <r_lp_tautomer_probability>
1

> <r_epik_Ionization_Penalty>
  0.0006

> <r_epik_Ionization_Penalty_Charging>
  0.0000

> <r_epik_Ionization_Penalty_Neutral>
  0.0006

> <r_epik_State_Penalty>
  0.0000

> <r_epik_Charging_Adjusted_Penalty>
0

> <i_epik_Tot_Q>
0

> <i_epik_Tot_abs_Q>
0

> <i_f3d_flags>
0

> <s_lp_Force_Field>
OPLS_2005

> <r_lp_Energy>
19.527872

> <b_lp_Chiralities_Consistent>
1

> <s_lp_Variant>
BindingDB_50428419_mol_1-1

> <s_i_glide_gridfile>
struct_1_site_1

> <i_i_glide_lignum>
110

> <i_i_glide_rotatable_bonds>
4

> <r_i_docking_score>
-8.2404054370884

> <r_i_glide_ligand_efficiency>
-0.358278497264713

> <r_i_glide_ligand_efficiency_sa>
-1.01889638689704

> <r_i_glide_ligand_efficiency_ln>
-1.99260475455337

> <r_i_glide_gscore>
-8.2404054370884

> <r_i_glide_lipo>
-2.58067828037463

> <r_i_glide_hbond>
-0.32

> <r_i_glide_metal>
0

> <r_i_glide_rewards>
-2.93238366218071

> <r_i_glide_evdw>
-41.093074798584

> <r_i_glide_ecoul>
-4.97587394714355

> <r_i_glide_erotb>
0.393691337467661

> <r_i_glide_esite>
0

> <r_i_glide_emodel>
-50.6102427944873

> <r_i_glide_energy>
-46.0689487457275

> <r_i_glide_einternal>
2.56905484199524

> <i_i_glide_confnum>
4

> <i_i_glide_posenum>
297

> <r_i_glide_eff_state_penalty>
0

> <IC50 (nM)>
413

> <PMID>
22867529

> <r_glide_shape_similarity>
0.822333216667175

> <s_m_subgroup_title>
505 training

> <s_m_subgroupid>
pocket_pv

> <b_m_subgroup_collapsed>
0

$$$$
BindingDB_50428413_mol_1
                    3D
 Schrodinger Suite 2021-2.
 39 41  0  0  1  0            999 V2000
   21.7622   -1.7922   55.1556 N   0  0  0  0  0  0
   21.6722    0.6292   52.4045 C   0  0  0  0  0  0
   19.4303   -0.2624   52.7804 C   0  0  0  0  0  0
   21.3071   -1.0192   54.1584 C   0  0  0  0  0  0
   24.6264    0.4487   53.1768 N   0  0  0  0  0  0
   17.1503   -0.8931   53.1638 C   0  0  0  0  0  0
   18.1154   -0.2395   52.3740 O   0  0  0  0  0  0
   23.0423   -1.6880   55.4686 C   0  0  0  0  0  0
   23.5594   -0.2007   53.8280 C   0  0  0  0  0  0
   22.1869   -0.1636   53.4474 C   0  0  0  0  0  0
   23.9456   -0.9476   54.8663 N   0  0  0  0  0  0
   20.2977    0.5749   52.0726 C   0  0  0  0  0  0
   19.9439   -1.0641   53.8165 C   0  0  0  0  0  0
   25.9958    0.0613   53.2284 C   0  0  0  0  0  0
   26.3530   -1.3037   53.1686 C   0  0  0  0  0  0
   27.6904   -1.7366   53.2459 C   0  0  0  0  0  0
   28.7213   -0.8073   53.3766 C   0  0  0  0  0  0
   28.4002    0.5524   53.4025 C   0  0  0  0  0  0
   27.0610    0.9845   53.3237 C   0  0  0  0  0  0
   19.7189    1.3224   51.0786 O   0  0  0  0  0  0
   20.5140    1.6394   49.9558 C   0  0  0  0  0  0
   26.7945    2.4541   53.3171 C   0  0  0  0  0  0
   25.8011    2.7341   54.1382 F   0  0  0  0  0  0
   27.8710    3.1329   53.6964 F   0  0  0  0  0  0
   26.4591    2.8007   52.0823 F   0  0  0  0  0  0
   22.3390    1.2823   51.8614 H   0  0  0  0  0  0
   24.4330    1.3865   52.8598 H   0  0  0  0  0  0
   16.1578   -0.7205   52.7459 H   0  0  0  0  0  0
   17.3212   -1.9692   53.1857 H   0  0  0  0  0  0
   17.1496   -0.5019   54.1802 H   0  0  0  0  0  0
   23.3954   -2.3136   56.2774 H   0  0  0  0  0  0
   19.3011   -1.7179   54.3840 H   0  0  0  0  0  0
   25.5908   -2.0618   53.0787 H   0  0  0  0  0  0
   27.9154   -2.7933   53.2147 H   0  0  0  0  0  0
   29.7514   -1.1301   53.4406 H   0  0  0  0  0  0
   29.2131    1.2606   53.4788 H   0  0  0  0  0  0
   19.8715    2.0073   49.1552 H   0  0  0  0  0  0
   21.2382    2.4221   50.1884 H   0  0  0  0  0  0
   21.0440    0.7626   49.5775 H   0  0  0  0  0  0
  1  4  1  0  0  0
  1  8  2  0  0  0
  2 10  2  0  0  0
  2 12  1  0  0  0
  2 26  1  0  0  0
  3  7  1  0  0  0
  3 12  2  0  0  0
  3 13  1  0  0  0
  4 10  1  0  0  0
  4 13  2  0  0  0
  5  9  1  0  0  0
  5 14  1  0  0  0
  5 27  1  0  0  0
  6  7  1  0  0  0
  6 28  1  0  0  0
  6 29  1  0  0  0
  6 30  1  0  0  0
  8 11  1  0  0  0
  8 31  1  0  0  0
  9 10  1  0  0  0
  9 11  2  0  0  0
 12 20  1  0  0  0
 13 32  1  0  0  0
 14 15  2  0  0  0
 14 19  1  0  0  0
 15 16  1  0  0  0
 15 33  1  0  0  0
 16 17  2  0  0  0
 16 34  1  0  0  0
 17 18  1  0  0  0
 17 35  1  0  0  0
 18 19  2  0  0  0
 18 36  1  0  0  0
 19 22  1  0  0  0
 20 21  1  0  0  0
 21 37  1  0  0  0
 21 38  1  0  0  0
 21 39  1  0  0  0
 22 23  1  0  0  0
 22 24  1  0  0  0
 22 25  1  0  0  0
M  END
> <s_m_entry_id>
212

> <s_m_entry_name>
pocket_pv.23

> <s_m_Source_Path>
/home/bortolaa/Project/GT/mario-master/docking/set505protein_struct_1_site_1_set505ligs_train

> <s_m_Source_File>
pocket_pv.maegz

> <i_m_Source_File_Index>
23

> <From>
www.bindingDB.org

> <BindingDB Reactant_set_id>
51049778

> <Ligand InChI>
InChI=1S/C17H14F3N3O2/c1-24-14-7-10-13(8-15(14)25-2)21-9-22-16(10)23-12-6-4-3-5-11(12)17(18,19)20/h3-9H,1-2H3,(H,21,22,23)

> <Ligand InChI Key>
XENVBHIMDXYJEE-UHFFFAOYSA-N

> <BindingDB MonomerID>
50428413

> <BindingDB Ligand Name>
CHEMBL2333986

> <Target Name Assigned by Curator or DataSource>
Epidermal growth factor receptor

> <Target Source Organism According to Curator or DataSource>
Homo sapiens

> <Ki (nM)>


> <IC50 (nM)>
10000

> <Kd (nM)>


> <EC50 (nM)>


> <kon (M-1-s-1)>


> <koff (s-1)>


> <pH>


> <Temp C>


> <Curation/DataSource>
ChEMBL

> <Article DOI>
10.1016/j.ejmech.2012.07.036

> <PubChem AID>


> <Patent Number>


> <Authors>
Lu, S; Zheng, W; Ji, L; Luo, Q; Hao, X; Li, X; Wang, F

> <Institution>
Chinese Academy of Sciences

> <Link to Ligand in BindingDB>
http://www.bindingdb.org/bind/chemsearch/marvin/MolStructure.jsp?monomerid=50428413

> <Link to Ligand-Target Pair in BindingDB>
http://www.bindingdb.org/jsp/dbsearch/PrimarySearch_ki.jsp?energyterm=kJ/mole&tag=r21&monomerid=50428413&enzyme=Epidermal+growth+factor+receptor&column=ki&startPg=0&Increment=50&submit=Search

> <Ligand HET ID in PDB>


> <PDB ID(s) for Ligand-Target Complex>


> <PubChem CID>
9906350

> <PubChem SID>
164157288

> <ChEBI ID of Ligand>


> <ChEMBL ID of Ligand>
CHEMBL2333986

> <DrugBank ID of Ligand>


> <IUPHAR_GRAC ID of Ligand>


> <KEGG ID of Ligand>


> <ZINC ID of Ligand>
ZINC95588440

> <Number of Protein Chains in Target (>
1

> <BindingDB Target Chain Sequence>
MRPSGTAGAALLALLAALCPASRALEEKKVCQGTSNKLTQLGTFEDHFLSLQRMFNNCEVVLGNLEITYVQRNYDLSFLKTIQEVAGYVLIALNTVERIPLENLQIIRGNMYYENSYALAVLSNYDANKTGLKELPMRNLQEILHGAVRFSNNPALCNVESIQWRDIVSSDFLSNMSMDFQNHLGSCQKCDPSCPNGSCWGAGEENCQKLTKIICAQQCSGRCRGKSPSDCCHNQCAAGCTGPRESDCLVCRKFRDEATCKDTCPPLMLYNPTTYQMDVNPEGKYSFGATCVKKCPRNYVVTDHGSCVRACGADSYEMEEDGVRKCKKCEGPCRKVCNGIGIGEFKDSLSINATNIKHFKNCTSISGDLHILPVAFRGDSFTHTPPLDPQELDILKTVKEITGFLLIQAWPENRTDLHAFENLEIIRGRTKQHGQFSLAVVSLNITSLGLRSLKEISDGDVIISGNKNLCYANTINWKKLFGTSGQKTKIISNRGENSCKATGQVCHALCSPEGCWGPEPRDCVSCRNVSRGRECVDKCNLLEGEPREFVENSECIQCHPECLPQAMNITCTGRGPDNCIQCAHYIDGPHCVKTCPAGVMGENNTLVWKYADAGHVCHLCHPNCTYGCTGPGLEGCPTNGPKIPSIATGMVGALLLLLVVALGIGLFMRRRHIVRKRTLRRLLQERELVEPLTPSGEAPNQALLRILKETEFKKIKVLGSGAFGTVYKGLWIPEGEKVKIPVAIKELREATSPKANKEILDEAYVMASVDNPHVCRLLGICLTSTVQLITQLMPFGCLLDYVREHKDNIGSQYLLNWCVQIAKGMNYLEDRRLVHRDLAARNVLVKTPQHVKITDFGLAKLLGAEEKEYHAEGGKVPIKWMALESILHRIYTHQSDVWSYGVTVWELMTFGSKPYDGIPASEISSILEKGERLPQPPICTIDVYMIMVKCWMIDADSRPKFRELIIEFSKMARDPQRYLVIQGDERMHLPSPTDSNFYRALMDEEDMDDVVDADEYLIPQQGFFSSPSTSRTPLLSSLSATSNNSTVACIDRNGLQSCPIKEDSFLQRYSSDPTGALTEDSIDDTFLPVPEYINQSVPKRPAGSVQNPVYHNQPLNPAPSRDPHYQDPHSTAVGNPEYLNTVQPTCVNSTFDSPAHWAQKGSHQISLDNPDYQQDFFPKEAKPNGIFKGSTAENAEYLRVAPQSSEFIGA

> <PDB ID(s) of Target Chain>
1IVO,1M14,1M17,1MOX,1XKK,1Z9I,2GS2,2GS6,2ITW,2ITX,2ITY,2J5E,2J5F,2J6M,2RF9,2RGP,3B2V,3BEL,3GOP,3POZ,3QWQ,3VJO,3W2O,3W2P,3W2Q,3W2R,3W2S,3W32,3W33,4G5J,4I23,4JQ7,4JQ8,4JR3,4JRV,4KRO,4LI5,4RJ4,4RJ5,4RJ6,4RJ7,4RJ8,4TKS,4UIP,4UV7,4WKQ,4WRG,4ZAU,5C8K,5C8M,5C8N,5CAL,5CAN,5CAO,5CAP,5CAQ,5CAS,5CAU,5CAV,5EDP,5EDQ,5EDR,5EM5,5EM6,5EM7,5EM8,5FED,5GNK,5HCX,5HCY,5HCZ,5HIB,5HIC,5UGB,5WB7,5WB8,5Y25,6S89,6S8A

> <UniProt (SwissProt) Recommended Name of Target Chain>
Epidermal growth factor receptor

> <UniProt (SwissProt) Entry Name of Target Chain>
EGFR_HUMAN

> <UniProt (SwissProt) Primary ID of Target Chain>
P00533

> <UniProt (SwissProt) Secondary ID(s) of Target Chain>
O00688,O00732,P06268,Q14225,Q68GS5,Q92795,Q9BZS2,Q9GZX1,Q9H2C9,Q9H3C9,Q9UMD7,Q9UMD8,Q9UMG5

> <UniProt (SwissProt) Alternative ID(s) of Target Chain>


> <UniProt (TrEMBL) Submitted Name of Target Chain>


> <UniProt (TrEMBL) Entry Name of Target Chain>


> <UniProt (TrEMBL) Primary ID of Target Chain>


> <UniProt (TrEMBL) Secondary ID(s) of Target Chain>


> <UniProt (TrEMBL) Alternative ID(s) of Target Chain>


> <training label>
5

> <i_lp_mmshare_version>
54117

> <s_epik_input>
W0NIM11PYyhbY0hdMSljKE9bQ0gzXSlbY0hdYyhjMTIpYyhuW2NIXW4yKVtOSF1jM1tjSF1bY0hdW2NIXVtjSF1jM0MoRikoRilG

> <s_epik_cmdline>
J2VwaWtfcHl0aG9uJywgJy1waHQnLCAnMC4xJywgJy1waCcsICc3LjQnLCAnLXRuJywgJzgnLCAnLW1hJywgJzIwMCcsICctaW1hZScsICc8aW5maWxlLm1hZT4nLCAnLW9tYWUnLCAnPG91dGZpbGUubWFlPic=

> <r_lp_tautomer_probability>
1

> <r_epik_Ionization_Penalty>
  0.0006

> <r_epik_Ionization_Penalty_Charging>
  0.0000

> <r_epik_Ionization_Penalty_Neutral>
  0.0006

> <r_epik_State_Penalty>
  0.0000

> <r_epik_Charging_Adjusted_Penalty>
0

> <i_epik_Tot_Q>
0

> <i_epik_Tot_abs_Q>
0

> <i_f3d_flags>
0

> <s_lp_Force_Field>
OPLS_2005

> <r_lp_Energy>
23.599276

> <b_lp_Chiralities_Consistent>
1

> <s_lp_Variant>
BindingDB_50428413_mol_1-1

> <s_i_glide_gridfile>
struct_1_site_1

> <i_i_glide_lignum>
21

> <i_i_glide_rotatable_bonds>
5

> <r_i_docking_score>
-8.22972621601109

> <r_i_glide_ligand_efficiency>
-0.329189048640444

> <r_i_glide_ligand_efficiency_sa>
-0.962554616417294

> <r_i_glide_ligand_efficiency_ln>
-1.95069173818791

> <r_i_glide_gscore>
-8.22972621601109

> <r_i_glide_lipo>
-3.3170918143557

> <r_i_glide_hbond>
-0.32

> <r_i_glide_metal>
0

> <r_i_glide_rewards>
-2.1792870722696

> <r_i_glide_evdw>
-36.1722297668457

> <r_i_glide_ecoul>
-4.64495992660522

> <r_i_glide_erotb>
0.312208866795158

> <r_i_glide_esite>
-0.220200718847887

> <r_i_glide_emodel>
-39.4625354720405

> <r_i_glide_energy>
-40.8171896934509

> <r_i_glide_einternal>
2.62076830863953

> <i_i_glide_confnum>
9

> <i_i_glide_posenum>
328

> <r_i_glide_eff_state_penalty>
0

> <PMID>
22867529

> <r_glide_shape_similarity>
0.783431768417358

> <s_m_subgroup_title>
505 training

> <s_m_subgroupid>
pocket_pv

> <b_m_subgroup_collapsed>
0

$$$$
BindingDB_50227519_mol_1
                    3D
 Schrodinger Suite 2021-2.
 37 39  0  0  1  0            999 V2000
   19.3433   -0.3841   52.8354 C   0  0  0  0  0  0
   20.1610    0.5224   52.1421 C   0  0  0  0  0  0
   21.5174    0.6423   52.4945 C   0  0  0  0  0  0
   19.9096   -1.2031   53.8389 C   0  0  0  0  0  0
   21.2708   -1.1078   54.1796 C   0  0  0  0  0  0
   22.0743   -0.1672   53.5016 C   0  0  0  0  0  0
   23.4367   -0.0950   53.8666 C   0  0  0  0  0  0
   23.9344   -0.8942   54.8242 N   0  0  0  0  0  0
   23.0923   -1.7335   55.4080 C   0  0  0  0  0  0
   21.8017   -1.8904   55.1365 N   0  0  0  0  0  0
   24.2911    0.8513   53.2796 N   0  0  0  0  0  0
   25.6887    0.9397   53.3448 C   0  0  0  0  0  0
   26.3175    2.1989   53.3584 C   0  0  0  0  0  0
   27.7240    2.2934   53.3812 C   0  0  0  0  0  0
   28.5094    1.1242   53.3876 C   0  0  0  0  0  0
   27.8865   -0.1260   53.3770 C   0  0  0  0  0  0
   26.4911   -0.2156   53.3431 C   0  0  0  0  0  0
   29.8774    1.1283   53.3802 O   0  0  0  0  0  0
   18.0221   -0.4044   52.4578 O   0  0  0  0  0  0
   17.1123   -1.1500   53.2359 C   0  0  0  0  0  0
   19.5864    1.2630   51.1388 O   0  0  0  0  0  0
   20.3944    1.5757   50.0172 C   0  0  0  0  0  0
   22.1347    1.3539   51.9694 H   0  0  0  0  0  0
   19.3053   -1.9121   54.3822 H   0  0  0  0  0  0
   23.5026   -2.3757   56.1728 H   0  0  0  0  0  0
   23.8258    1.6243   52.8359 H   0  0  0  0  0  0
   25.7321    3.1078   53.3486 H   0  0  0  0  0  0
   28.1904    3.2679   53.3839 H   0  0  0  0  0  0
   28.4820   -1.0276   53.3751 H   0  0  0  0  0  0
   26.0398   -1.1958   53.3052 H   0  0  0  0  0  0
   30.3843    1.9354   53.3096 H   0  0  0  0  0  0
   16.0974   -0.9690   52.8820 H   0  0  0  0  0  0
   17.3068   -2.2200   53.1514 H   0  0  0  0  0  0
   17.1496   -0.8670   54.2885 H   0  0  0  0  0  0
   19.7556    1.8816   49.1883 H   0  0  0  0  0  0
   20.9773    0.7143   49.6845 H   0  0  0  0  0  0
   21.0705    2.4029   50.2366 H   0  0  0  0  0  0
  1  2  2  0  0  0
  1  4  1  0  0  0
  1 19  1  0  0  0
  2  3  1  0  0  0
  2 21  1  0  0  0
  3  6  2  0  0  0
  3 23  1  0  0  0
  4  5  2  0  0  0
  4 24  1  0  0  0
  5  6  1  0  0  0
  5 10  1  0  0  0
  6  7  1  0  0  0
  7  8  2  0  0  0
  7 11  1  0  0  0
  8  9  1  0  0  0
  9 10  2  0  0  0
  9 25  1  0  0  0
 11 12  1  0  0  0
 11 26  1  0  0  0
 12 13  2  0  0  0
 12 17  1  0  0  0
 13 14  1  0  0  0
 13 27  1  0  0  0
 14 15  2  0  0  0
 14 28  1  0  0  0
 15 16  1  0  0  0
 15 18  1  0  0  0
 16 17  2  0  0  0
 16 29  1  0  0  0
 17 30  1  0  0  0
 18 31  1  0  0  0
 19 20  1  0  0  0
 20 32  1  0  0  0
 20 33  1  0  0  0
 20 34  1  0  0  0
 21 22  1  0  0  0
 22 35  1  0  0  0
 22 36  1  0  0  0
 22 37  1  0  0  0
M  END
> <s_m_entry_id>
213

> <s_m_entry_name>
pocket_pv.24

> <s_m_Source_Path>
/home/bortolaa/Project/GT/mario-master/docking/set505protein_struct_1_site_1_set505ligs_train

> <s_m_Source_File>
pocket_pv.maegz

> <i_m_Source_File_Index>
24

> <From>
www.bindingDB.org

> <BindingDB Reactant_set_id>
50726946

> <Ligand InChI>
InChI=1S/C16H15N3O3/c1-21-14-7-12-13(8-15(14)22-2)17-9-18-16(12)19-10-3-5-11(20)6-4-10/h3-9,20H,1-2H3,(H,17,18,19)

> <Ligand InChI Key>
HOZUXBLMYUPGPZ-UHFFFAOYSA-N

> <BindingDB MonomerID>
50227519

> <BindingDB Ligand Name>
4-(6,7-dimethoxyquinazolin-4-ylamino)phenol::CHEMBL405130::CHEMBL555201::WHI-P131

> <Target Name Assigned by Curator or DataSource>
Epidermal growth factor receptor

> <Target Source Organism According to Curator or DataSource>
Homo sapiens

> <Ki (nM)>


> <Kd (nM)>


> <EC50 (nM)>


> <kon (M-1-s-1)>


> <koff (s-1)>


> <pH>


> <Temp C>


> <Curation/DataSource>
ChEMBL

> <Article DOI>
10.1016/S0960-894X(97)00034-6

> <PMID>


> <PubChem AID>


> <Patent Number>


> <Authors>
Myers, MR; Setzer, NN; Spada, A; Zulli, AL; Hsu, CJ; Zilberstein, A; Johnson, SE; Hook, LE; Jacoski, MV

> <Institution>
TBA

> <Link to Ligand in BindingDB>
http://www.bindingdb.org/bind/chemsearch/marvin/MolStructure.jsp?monomerid=50227519

> <Link to Ligand-Target Pair in BindingDB>
http://www.bindingdb.org/jsp/dbsearch/PrimarySearch_ki.jsp?energyterm=kJ/mole&tag=r21&monomerid=50227519&enzyme=Epidermal+growth+factor+receptor&column=ki&startPg=0&Increment=50&submit=Search

> <Ligand HET ID in PDB>


> <PDB ID(s) for Ligand-Target Complex>


> <PubChem CID>
3794

> <PubChem SID>
104097414

> <ChEBI ID of Ligand>


> <ChEMBL ID of Ligand>
CHEMBL555201
CHEMBL405130

> <DrugBank ID of Ligand>


> <IUPHAR_GRAC ID of Ligand>


> <KEGG ID of Ligand>


> <ZINC ID of Ligand>
ZINC00009851

> <Number of Protein Chains in Target (>
1

> <BindingDB Target Chain Sequence>
MRPSGTAGAALLALLAALCPASRALEEKKVCQGTSNKLTQLGTFEDHFLSLQRMFNNCEVVLGNLEITYVQRNYDLSFLKTIQEVAGYVLIALNTVERIPLENLQIIRGNMYYENSYALAVLSNYDANKTGLKELPMRNLQEILHGAVRFSNNPALCNVESIQWRDIVSSDFLSNMSMDFQNHLGSCQKCDPSCPNGSCWGAGEENCQKLTKIICAQQCSGRCRGKSPSDCCHNQCAAGCTGPRESDCLVCRKFRDEATCKDTCPPLMLYNPTTYQMDVNPEGKYSFGATCVKKCPRNYVVTDHGSCVRACGADSYEMEEDGVRKCKKCEGPCRKVCNGIGIGEFKDSLSINATNIKHFKNCTSISGDLHILPVAFRGDSFTHTPPLDPQELDILKTVKEITGFLLIQAWPENRTDLHAFENLEIIRGRTKQHGQFSLAVVSLNITSLGLRSLKEISDGDVIISGNKNLCYANTINWKKLFGTSGQKTKIISNRGENSCKATGQVCHALCSPEGCWGPEPRDCVSCRNVSRGRECVDKCNLLEGEPREFVENSECIQCHPECLPQAMNITCTGRGPDNCIQCAHYIDGPHCVKTCPAGVMGENNTLVWKYADAGHVCHLCHPNCTYGCTGPGLEGCPTNGPKIPSIATGMVGALLLLLVVALGIGLFMRRRHIVRKRTLRRLLQERELVEPLTPSGEAPNQALLRILKETEFKKIKVLGSGAFGTVYKGLWIPEGEKVKIPVAIKELREATSPKANKEILDEAYVMASVDNPHVCRLLGICLTSTVQLITQLMPFGCLLDYVREHKDNIGSQYLLNWCVQIAKGMNYLEDRRLVHRDLAARNVLVKTPQHVKITDFGLAKLLGAEEKEYHAEGGKVPIKWMALESILHRIYTHQSDVWSYGVTVWELMTFGSKPYDGIPASEISSILEKGERLPQPPICTIDVYMIMVKCWMIDADSRPKFRELIIEFSKMARDPQRYLVIQGDERMHLPSPTDSNFYRALMDEEDMDDVVDADEYLIPQQGFFSSPSTSRTPLLSSLSATSNNSTVACIDRNGLQSCPIKEDSFLQRYSSDPTGALTEDSIDDTFLPVPEYINQSVPKRPAGSVQNPVYHNQPLNPAPSRDPHYQDPHSTAVGNPEYLNTVQPTCVNSTFDSPAHWAQKGSHQISLDNPDYQQDFFPKEAKPNGIFKGSTAENAEYLRVAPQSSEFIGA

> <PDB ID(s) of Target Chain>
1IVO,1M14,1M17,1MOX,1XKK,1Z9I,2GS2,2GS6,2ITW,2ITX,2ITY,2J5E,2J5F,2J6M,2RF9,2RGP,3B2V,3BEL,3GOP,3POZ,3QWQ,3VJO,3W2O,3W2P,3W2Q,3W2R,3W2S,3W32,3W33,4G5J,4I23,4JQ7,4JQ8,4JR3,4JRV,4KRO,4LI5,4RJ4,4RJ5,4RJ6,4RJ7,4RJ8,4TKS,4UIP,4UV7,4WKQ,4WRG,4ZAU,5C8K,5C8M,5C8N,5CAL,5CAN,5CAO,5CAP,5CAQ,5CAS,5CAU,5CAV,5EDP,5EDQ,5EDR,5EM5,5EM6,5EM7,5EM8,5FED,5GNK,5HCX,5HCY,5HCZ,5HIB,5HIC,5UGB,5WB7,5WB8,5Y25,6S89,6S8A

> <UniProt (SwissProt) Recommended Name of Target Chain>
Epidermal growth factor receptor

> <UniProt (SwissProt) Entry Name of Target Chain>
EGFR_HUMAN

> <UniProt (SwissProt) Primary ID of Target Chain>
P00533

> <UniProt (SwissProt) Secondary ID(s) of Target Chain>
O00688,O00732,P06268,Q14225,Q68GS5,Q92795,Q9BZS2,Q9GZX1,Q9H2C9,Q9H3C9,Q9UMD7,Q9UMD8,Q9UMG5

> <UniProt (SwissProt) Alternative ID(s) of Target Chain>


> <UniProt (TrEMBL) Submitted Name of Target Chain>


> <UniProt (TrEMBL) Entry Name of Target Chain>


> <UniProt (TrEMBL) Primary ID of Target Chain>


> <UniProt (TrEMBL) Secondary ID(s) of Target Chain>


> <UniProt (TrEMBL) Alternative ID(s) of Target Chain>


> <training label>
7

> <i_lp_mmshare_version>
54117

> <s_epik_input>
W0NIM11PYyhbY0hdMSljKE9bQ0gzXSlbY0hdYyhjMTIpYyhuW2NIXW4yKVtOSF1jM1tjSF1bY0hdYyhbT0hdKVtjSF1bY0hdMw==

> <s_epik_cmdline>
J2VwaWtfcHl0aG9uJywgJy1waHQnLCAnMC4xJywgJy1waCcsICc3LjQnLCAnLXRuJywgJzgnLCAnLW1hJywgJzIwMCcsICctaW1hZScsICc8aW5maWxlLm1hZT4nLCAnLW9tYWUnLCAnPG91dGZpbGUubWFlPic=

> <r_lp_tautomer_probability>
1

> <r_epik_Ionization_Penalty>
  0.0009

> <r_epik_Ionization_Penalty_Charging>
  0.0000

> <r_epik_Ionization_Penalty_Neutral>
  0.0009

> <r_epik_State_Penalty>
  0.0000

> <r_epik_Charging_Adjusted_Penalty>
0

> <i_epik_Tot_Q>
0

> <i_epik_Tot_abs_Q>
0

> <i_f3d_flags>
0

> <s_lp_Force_Field>
OPLS_2005

> <r_lp_Energy>
20.744247

> <b_lp_Chiralities_Consistent>
1

> <s_lp_Variant>
BindingDB_50227519_mol_1-1

> <s_i_glide_gridfile>
struct_1_site_1

> <i_i_glide_lignum>
161

> <i_i_glide_rotatable_bonds>
5

> <r_i_docking_score>
-8.22026634102015

> <r_i_glide_ligand_efficiency>
-0.37364847004637

> <r_i_glide_ligand_efficiency_sa>
-1.04697770783039

> <r_i_glide_ligand_efficiency_ln>
-2.00933293524543

> <r_i_glide_gscore>
-8.22026634102015

> <r_i_glide_lipo>
-2.61017907612787

> <r_i_glide_hbond>
-0.439249988622458

> <r_i_glide_metal>
0

> <r_i_glide_rewards>
-2.54447486007255

> <r_i_glide_evdw>
-35.1760063171387

> <r_i_glide_ecoul>
-8.54922008514404

> <r_i_glide_erotb>
0.41482091243128

> <r_i_glide_esite>
0

> <r_i_glide_emodel>
-44.8408873224849

> <r_i_glide_energy>
-43.7252264022827

> <r_i_glide_einternal>
0.541910707950592

> <i_i_glide_confnum>
4

> <i_i_glide_posenum>
10

> <r_i_glide_eff_state_penalty>
0

> <IC50 (nM)>
100

> <r_glide_shape_similarity>
0.771865665912628

> <s_m_subgroup_title>
505 training

> <s_m_subgroupid>
pocket_pv

> <b_m_subgroup_collapsed>
0

$$$$
BindingDB_50307791_mol_1
                    3D
 Schrodinger Suite 2021-2.
 58 60  0  0  1  0            999 V2000
   20.1534    0.5275   52.1327 C   0  0  0  0  0  0
   19.3329   -0.3886   52.8365 C   0  0  0  0  0  0
   19.9040   -1.2120   53.8443 C   0  0  0  0  0  0
   21.5181    0.6513   52.4871 C   0  0  0  0  0  0
   22.0751   -0.1671   53.5009 C   0  0  0  0  0  0
   21.2693   -1.1175   54.1845 C   0  0  0  0  0  0
   21.8025   -1.9066   55.1439 N   0  0  0  0  0  0
   23.0978   -1.7450   55.4201 C   0  0  0  0  0  0
   23.9433   -0.9038   54.8332 N   0  0  0  0  0  0
   23.4408   -0.0984   53.8715 C   0  0  0  0  0  0
   19.5666    1.2635   51.1177 O   0  0  0  0  0  0
   24.2875    0.8510   53.2731 N   0  0  0  0  0  0
   18.0031   -0.4198   52.4672 O   0  0  0  0  0  0
   17.1268   -1.2811   53.1753 C   0  0  0  0  0  0
   25.6840    0.9535   53.3402 C   0  0  0  0  0  0
   26.5140   -0.1901   53.3312 C   0  0  0  0  0  0
   27.9167   -0.0526   53.3822 C   0  0  0  0  0  0
   28.5025    1.2300   53.4398 C   0  0  0  0  0  0
   27.6781    2.3720   53.4255 C   0  0  0  0  0  0
   26.2756    2.2361   53.3685 C   0  0  0  0  0  0
   15.7231   -1.1269   52.5780 C   0  0  0  0  0  0
   15.0729    0.2308   52.8962 C   0  0  0  0  0  0
   13.7019    0.3559   52.2023 C   0  0  0  0  0  0
   13.0261    1.7441   52.3436 C   0  0  0  0  0  0
   12.5444    2.1431   53.7662 C   0  0  0  0  0  0
   20.3929    1.7368   50.0499 C   0  0  0  0  0  0
   11.4951    1.1818   54.3645 C   0  0  0  0  0  0
   10.1967    1.5343   54.2190 N   0  0  0  0  0  0
   11.8752    0.1732   54.9744 O   0  0  0  0  0  0
    9.2391    0.8353   55.0128 O   0  0  0  0  0  0
   28.7445   -1.2440   53.3693 C   0  0  0  0  0  0
   29.3744   -2.2898   53.3613 C   0  0  0  0  0  0
   19.2998   -1.9241   54.3850 H   0  0  0  0  0  0
   22.1350    1.3614   51.9631 H   0  0  0  0  0  0
   23.5121   -2.3969   56.1728 H   0  0  0  0  0  0
   23.8200    1.6270   52.8294 H   0  0  0  0  0  0
   17.4518   -2.3173   53.0705 H   0  0  0  0  0  0
   17.1144   -1.0355   54.2371 H   0  0  0  0  0  0
   26.0765   -1.1760   53.2763 H   0  0  0  0  0  0
   29.5760    1.3441   53.4852 H   0  0  0  0  0  0
   28.1158    3.3590   53.4574 H   0  0  0  0  0  0
   25.6676    3.1283   53.3583 H   0  0  0  0  0  0
   15.7769   -1.2799   51.4978 H   0  0  0  0  0  0
   15.0889   -1.9219   52.9769 H   0  0  0  0  0  0
   14.9539    0.3367   53.9728 H   0  0  0  0  0  0
   15.7284    1.0414   52.5707 H   0  0  0  0  0  0
   13.8405    0.1685   51.1360 H   0  0  0  0  0  0
   13.0329   -0.4276   52.5604 H   0  0  0  0  0  0
   13.7081    2.5122   51.9789 H   0  0  0  0  0  0
   12.1669    1.7786   51.6731 H   0  0  0  0  0  0
   13.3942    2.1927   54.4464 H   0  0  0  0  0  0
   12.1311    3.1515   53.7448 H   0  0  0  0  0  0
   19.7577    2.0739   49.2301 H   0  0  0  0  0  0
   21.0060    2.5834   50.3707 H   0  0  0  0  0  0
   21.0453    0.9480   49.6621 H   0  0  0  0  0  0
    9.7702    2.3554   53.7767 H   0  0  0  0  0  0
    8.4127    1.2183   54.7441 H   0  0  0  0  0  0
   29.8898   -3.2234   53.3585 H   0  0  0  0  0  0
  1  2  2  0  0  0
  1  4  1  0  0  0
  1 11  1  0  0  0
  2  3  1  0  0  0
  2 13  1  0  0  0
  3  6  2  0  0  0
  3 33  1  0  0  0
  4  5  2  0  0  0
  4 34  1  0  0  0
  5  6  1  0  0  0
  5 10  1  0  0  0
  6  7  1  0  0  0
  7  8  2  0  0  0
  8  9  1  0  0  0
  8 35  1  0  0  0
  9 10  2  0  0  0
 10 12  1  0  0  0
 11 26  1  0  0  0
 12 15  1  0  0  0
 12 36  1  0  0  0
 13 14  1  0  0  0
 14 21  1  0  0  0
 14 37  1  0  0  0
 14 38  1  0  0  0
 15 16  2  0  0  0
 15 20  1  0  0  0
 16 17  1  0  0  0
 16 39  1  0  0  0
 17 18  2  0  0  0
 17 31  1  0  0  0
 18 19  1  0  0  0
 18 40  1  0  0  0
 19 20  2  0  0  0
 19 41  1  0  0  0
 20 42  1  0  0  0
 21 22  1  0  0  0
 21 43  1  0  0  0
 21 44  1  0  0  0
 22 23  1  0  0  0
 22 45  1  0  0  0
 22 46  1  0  0  0
 23 24  1  0  0  0
 23 47  1  0  0  0
 23 48  1  0  0  0
 24 25  1  0  0  0
 24 49  1  0  0  0
 24 50  1  0  0  0
 25 27  1  0  0  0
 25 51  1  0  0  0
 25 52  1  0  0  0
 26 53  1  0  0  0
 26 54  1  0  0  0
 26 55  1  0  0  0
 27 28  1  0  0  0
 27 29  2  0  0  0
 28 30  1  0  0  0
 28 56  1  0  0  0
 30 57  1  0  0  0
 31 32  3  0  0  0
 32 58  1  0  0  0
M  END
> <s_m_entry_id>
214

> <s_m_entry_name>
pocket_pv.25

> <s_m_Source_Path>
/home/bortolaa/Project/GT/mario-master/docking/set505protein_struct_1_site_1_set505ligs_train

> <s_m_Source_File>
pocket_pv.maegz

> <i_m_Source_File_Index>
25

> <From>
www.bindingDB.org

> <BindingDB Reactant_set_id>
50552140

> <Ligand InChI>
InChI=1S/C24H26N4O4/c1-3-17-9-8-10-18(13-17)27-24-19-14-21(31-2)22(15-20(19)25-16-26-24)32-12-7-5-4-6-11-23(29)28-30/h1,8-10,13-16,30H,4-7,11-12H2,2H3,(H,28,29)(H,25,26,27)

> <Ligand InChI Key>
GGLLZEGVMRMANJ-UHFFFAOYSA-N

> <BindingDB MonomerID>
50307791

> <BindingDB Ligand Name>
7-(4-(3-Ethynylphenylamino)-6-methoxyquinazolin-7-yloxy)-N-hydroxyheptanamide::CHEMBL598611

> <Target Name Assigned by Curator or DataSource>
Epidermal growth factor receptor

> <Target Source Organism According to Curator or DataSource>
Homo sapiens

> <Ki (nM)>


> <Kd (nM)>


> <EC50 (nM)>


> <kon (M-1-s-1)>


> <koff (s-1)>


> <pH>


> <Temp C>


> <Curation/DataSource>
ChEMBL

> <Article DOI>
10.1021/jm901453q

> <PubChem AID>


> <Patent Number>


> <Authors>
Cai, X; Zhai, HX; Wang, J; Forrester, J; Qu, H; Yin, L; Lai, CJ; Bao, R; Qian, C

> <Institution>
Curis Inc

> <Link to Ligand in BindingDB>
http://www.bindingdb.org/bind/chemsearch/marvin/MolStructure.jsp?monomerid=50307791

> <Link to Ligand-Target Pair in BindingDB>
http://www.bindingdb.org/jsp/dbsearch/PrimarySearch_ki.jsp?energyterm=kJ/mole&tag=r21&monomerid=50307791&enzyme=Epidermal+growth+factor+receptor&column=ki&startPg=0&Increment=50&submit=Search

> <Ligand HET ID in PDB>


> <PDB ID(s) for Ligand-Target Complex>


> <PubChem CID>
24944855

> <PubChem SID>
104162152

> <ChEBI ID of Ligand>


> <ChEMBL ID of Ligand>
CHEMBL598611

> <DrugBank ID of Ligand>


> <IUPHAR_GRAC ID of Ligand>


> <KEGG ID of Ligand>


> <ZINC ID of Ligand>
ZINC45357549

> <Number of Protein Chains in Target (>
1

> <BindingDB Target Chain Sequence>
MRPSGTAGAALLALLAALCPASRALEEKKVCQGTSNKLTQLGTFEDHFLSLQRMFNNCEVVLGNLEITYVQRNYDLSFLKTIQEVAGYVLIALNTVERIPLENLQIIRGNMYYENSYALAVLSNYDANKTGLKELPMRNLQEILHGAVRFSNNPALCNVESIQWRDIVSSDFLSNMSMDFQNHLGSCQKCDPSCPNGSCWGAGEENCQKLTKIICAQQCSGRCRGKSPSDCCHNQCAAGCTGPRESDCLVCRKFRDEATCKDTCPPLMLYNPTTYQMDVNPEGKYSFGATCVKKCPRNYVVTDHGSCVRACGADSYEMEEDGVRKCKKCEGPCRKVCNGIGIGEFKDSLSINATNIKHFKNCTSISGDLHILPVAFRGDSFTHTPPLDPQELDILKTVKEITGFLLIQAWPENRTDLHAFENLEIIRGRTKQHGQFSLAVVSLNITSLGLRSLKEISDGDVIISGNKNLCYANTINWKKLFGTSGQKTKIISNRGENSCKATGQVCHALCSPEGCWGPEPRDCVSCRNVSRGRECVDKCNLLEGEPREFVENSECIQCHPECLPQAMNITCTGRGPDNCIQCAHYIDGPHCVKTCPAGVMGENNTLVWKYADAGHVCHLCHPNCTYGCTGPGLEGCPTNGPKIPSIATGMVGALLLLLVVALGIGLFMRRRHIVRKRTLRRLLQERELVEPLTPSGEAPNQALLRILKETEFKKIKVLGSGAFGTVYKGLWIPEGEKVKIPVAIKELREATSPKANKEILDEAYVMASVDNPHVCRLLGICLTSTVQLITQLMPFGCLLDYVREHKDNIGSQYLLNWCVQIAKGMNYLEDRRLVHRDLAARNVLVKTPQHVKITDFGLAKLLGAEEKEYHAEGGKVPIKWMALESILHRIYTHQSDVWSYGVTVWELMTFGSKPYDGIPASEISSILEKGERLPQPPICTIDVYMIMVKCWMIDADSRPKFRELIIEFSKMARDPQRYLVIQGDERMHLPSPTDSNFYRALMDEEDMDDVVDADEYLIPQQGFFSSPSTSRTPLLSSLSATSNNSTVACIDRNGLQSCPIKEDSFLQRYSSDPTGALTEDSIDDTFLPVPEYINQSVPKRPAGSVQNPVYHNQPLNPAPSRDPHYQDPHSTAVGNPEYLNTVQPTCVNSTFDSPAHWAQKGSHQISLDNPDYQQDFFPKEAKPNGIFKGSTAENAEYLRVAPQSSEFIGA

> <PDB ID(s) of Target Chain>
1IVO,1M14,1M17,1MOX,1XKK,1Z9I,2GS2,2GS6,2ITW,2ITX,2ITY,2J5E,2J5F,2J6M,2RF9,2RGP,3B2V,3BEL,3GOP,3POZ,3QWQ,3VJO,3W2O,3W2P,3W2Q,3W2R,3W2S,3W32,3W33,4G5J,4I23,4JQ7,4JQ8,4JR3,4JRV,4KRO,4LI5,4RJ4,4RJ5,4RJ6,4RJ7,4RJ8,4TKS,4UIP,4UV7,4WKQ,4WRG,4ZAU,5C8K,5C8M,5C8N,5CAL,5CAN,5CAO,5CAP,5CAQ,5CAS,5CAU,5CAV,5EDP,5EDQ,5EDR,5EM5,5EM6,5EM7,5EM8,5FED,5GNK,5HCX,5HCY,5HCZ,5HIB,5HIC,5UGB,5WB7,5WB8,5Y25,6S89,6S8A

> <UniProt (SwissProt) Recommended Name of Target Chain>
Epidermal growth factor receptor

> <UniProt (SwissProt) Entry Name of Target Chain>
EGFR_HUMAN

> <UniProt (SwissProt) Primary ID of Target Chain>
P00533

> <UniProt (SwissProt) Secondary ID(s) of Target Chain>
O00688,O00732,P06268,Q14225,Q68GS5,Q92795,Q9BZS2,Q9GZX1,Q9H2C9,Q9H3C9,Q9UMD7,Q9UMD8,Q9UMG5

> <UniProt (SwissProt) Alternative ID(s) of Target Chain>


> <UniProt (TrEMBL) Submitted Name of Target Chain>


> <UniProt (TrEMBL) Entry Name of Target Chain>


> <UniProt (TrEMBL) Primary ID of Target Chain>


> <UniProt (TrEMBL) Secondary ID(s) of Target Chain>


> <UniProt (TrEMBL) Alternative ID(s) of Target Chain>


> <training label>
8.08619

> <i_lp_mmshare_version>
54117

> <s_epik_input>
W09IXVtOSF1DKD1PKVtDSDJdW0NIMl1bQ0gyXVtDSDJdW0NIMl1bQ0gyXU9jKGMoW2NIXTEpT1tDSDNdKVtjSF1jKGMxMiluW2NIXW5jMltOSF1jM1tjSF1jKEMjW0NIXSlbY0hdW2NIXVtjSF0z

> <s_epik_cmdline>
J2VwaWtfcHl0aG9uJywgJy1waHQnLCAnMC4xJywgJy1waCcsICc3LjQnLCAnLXRuJywgJzgnLCAnLW1hJywgJzIwMCcsICctaW1hZScsICc8aW5maWxlLm1hZT4nLCAnLW9tYWUnLCAnPG91dGZpbGUubWFlPic=

> <r_lp_tautomer_probability>
1

> <r_epik_Ionization_Penalty>
  0.0094

> <r_epik_Ionization_Penalty_Charging>
  0.0000

> <r_epik_Ionization_Penalty_Neutral>
  0.0094

> <r_epik_State_Penalty>
  0.0000

> <r_epik_Charging_Adjusted_Penalty>
0

> <i_epik_Tot_Q>
0

> <i_epik_Tot_abs_Q>
0

> <i_f3d_flags>
0

> <s_lp_Force_Field>
OPLS_2005

> <r_lp_Energy>
26.301933

> <b_lp_Chiralities_Consistent>
1

> <s_lp_Variant>
BindingDB_50307791_mol_1-1

> <s_i_glide_gridfile>
struct_1_site_1

> <i_i_glide_lignum>
238

> <i_i_glide_rotatable_bonds>
14

> <r_i_docking_score>
-8.21405043477108

> <r_i_glide_ligand_efficiency>
-0.256689076086596

> <r_i_glide_ligand_efficiency_sa>
-0.814937017875764

> <r_i_glide_ligand_efficiency_ln>
-1.83934979890356

> <r_i_glide_gscore>
-8.21405043477108

> <r_i_glide_lipo>
-3.33814797884711

> <r_i_glide_hbond>
-0.456

> <r_i_glide_metal>
0

> <r_i_glide_rewards>
-1.59472712724864

> <r_i_glide_evdw>
-48.830940246582

> <r_i_glide_ecoul>
-10.2716789245605

> <r_i_glide_erotb>
1.26599571966862

> <r_i_glide_esite>
-0.108872197330755

> <r_i_glide_emodel>
-67.1476782029745

> <r_i_glide_energy>
-59.1026191711426

> <r_i_glide_einternal>
9.33262252807617

> <i_i_glide_confnum>
27

> <i_i_glide_posenum>
152

> <r_i_glide_eff_state_penalty>
0

> <IC50 (nM)>
8.2

> <PMID>
20143778

> <s_epik_Chemistry_Notes>
This compound has a N-S or N-O group and may undergo hydrolysis at high or low pH.

> <r_glide_shape_similarity>
0.804712235927582

> <s_m_subgroup_title>
505 training

> <s_m_subgroupid>
pocket_pv

> <b_m_subgroup_collapsed>
0

$$$$
/home/bortolaa/Project/GT/mario-master/ligands/set505ligs_train.sdf:63
                    3D
 Schrodinger Suite 2021-2.
 46 49  0  0  1  0            999 V2000
   21.6308   -1.8507   55.0964 N   0  0  0  0  0  0
   22.9200   -1.7204   55.3974 C   0  0  0  0  0  0
   23.7724   -0.8837   54.8357 N   0  0  0  0  0  0
   23.3181   -0.0911   53.8382 C   0  0  0  0  0  0
   21.9598   -0.1422   53.4180 C   0  0  0  0  0  0
   21.4213    0.6310   52.3515 C   0  0  0  0  0  0
   20.0470    0.4997   52.0135 C   0  0  0  0  0  0
   19.2012   -0.3560   52.7347 C   0  0  0  0  0  0
   19.7472   -1.1464   53.7787 C   0  0  0  0  0  0
   21.1206   -1.0592   54.1235 C   0  0  0  0  0  0
   22.2266    1.4679   51.5969 O   0  0  0  0  0  0
   19.4941    1.1826   50.9473 O   0  0  0  0  0  0
   20.4212    1.5289   49.9326 C   0  0  0  0  0  0
   21.5661    2.2900   50.6235 C   0  0  0  0  0  0
   24.2823    0.7488   53.2582 N   0  0  0  0  0  0
   17.8870   -0.3656   52.2979 O   0  0  0  0  0  0
   16.8392   -0.8301   53.1361 C   0  0  0  0  0  0
   16.6937   -2.3592   53.0004 C   0  0  0  0  0  0
   15.5486   -0.0821   52.7337 C   0  0  0  0  0  0
   25.6478    0.4531   53.1891 C   0  0  0  0  0  0
   26.5941    1.4653   53.4076 C   0  0  0  0  0  0
   27.9522    1.1135   53.5614 C   0  0  0  0  0  0
   28.3649   -0.2463   53.4503 C   0  0  0  0  0  0
   27.4318   -1.2365   53.1086 C   0  0  0  0  0  0
   26.0784   -0.8806   52.9762 C   0  0  0  0  0  0
   28.8949    2.1753   53.9108 N   0  3  0  0  0  0
   28.9753    3.1337   53.1521 O   0  0  0  0  0  0
   29.4900    2.0610   54.9740 O   0  5  0  0  0  0
   29.9834   -0.7595   53.7707 Cl  0  0  0  0  0  0
   23.3069   -2.3677   56.1701 H   0  0  0  0  0  0
   19.1141   -1.8345   54.3217 H   0  0  0  0  0  0
   20.7876    0.6386   49.4169 H   0  0  0  0  0  0
   19.9256    2.1542   49.1896 H   0  0  0  0  0  0
   22.3024    2.6118   49.8843 H   0  0  0  0  0  0
   21.1814    3.1945   51.1015 H   0  0  0  0  0  0
   23.9396    1.5735   52.7870 H   0  0  0  0  0  0
   17.0680   -0.5860   54.1725 H   0  0  0  0  0  0
   16.0300   -2.7554   53.7736 H   0  0  0  0  0  0
   16.2831   -2.6321   52.0301 H   0  0  0  0  0  0
   17.6538   -2.8610   53.1014 H   0  0  0  0  0  0
   14.7224   -0.3618   53.3829 H   0  0  0  0  0  0
   15.6766    0.9963   52.8033 H   0  0  0  0  0  0
   15.2650   -0.3181   51.7126 H   0  0  0  0  0  0
   26.2895    2.4941   53.5375 H   0  0  0  0  0  0
   27.7310   -2.2696   53.0123 H   0  0  0  0  0  0
   25.3563   -1.6599   52.7696 H   0  0  0  0  0  0
  1  2  1  0  0  0
  1 10  2  0  0  0
  2  3  2  0  0  0
  2 30  1  0  0  0
  3  4  1  0  0  0
  4  5  2  0  0  0
  4 15  1  0  0  0
  5  6  1  0  0  0
  5 10  1  0  0  0
  6  7  2  0  0  0
  6 11  1  0  0  0
  7  8  1  0  0  0
  7 12  1  0  0  0
  8  9  2  0  0  0
  8 16  1  0  0  0
  9 10  1  0  0  0
  9 31  1  0  0  0
 11 14  1  0  0  0
 12 13  1  0  0  0
 13 14  1  0  0  0
 13 32  1  0  0  0
 13 33  1  0  0  0
 14 34  1  0  0  0
 14 35  1  0  0  0
 15 20  1  0  0  0
 15 36  1  0  0  0
 16 17  1  0  0  0
 17 18  1  0  0  0
 17 19  1  0  0  0
 17 37  1  0  0  0
 18 38  1  0  0  0
 18 39  1  0  0  0
 18 40  1  0  0  0
 19 41  1  0  0  0
 19 42  1  0  0  0
 19 43  1  0  0  0
 20 21  1  0  0  0
 20 25  2  0  0  0
 21 22  2  0  0  0
 21 44  1  0  0  0
 22 23  1  0  0  0
 22 26  1  0  0  0
 23 24  2  0  0  0
 23 29  1  0  0  0
 24 25  1  0  0  0
 24 45  1  0  0  0
 25 46  1  0  0  0
 26 27  2  0  0  0
 26 28  1  0  0  0
M  CHG  2  26   1  28  -1
M  END
> <s_m_entry_id>
215

> <s_m_entry_name>
pocket_pv.26

> <s_m_Source_Path>
/home/bortolaa/Project/GT/mario-master/docking/set505protein_struct_1_site_1_set505ligs_train

> <s_m_Source_File>
pocket_pv.maegz

> <i_m_Source_File_Index>
26

> <From>
www.bindingDB.org

> <BindingDB Reactant_set_id>
50497601

> <Ligand InChI>
InChI=1S/C19H17ClN4O5/c1-10(2)29-15-8-13-16(18-17(15)27-5-6-28-18)19(22-9-21-13)23-11-3-4-12(20)14(7-11)24(25)26/h3-4,7-10H,5-6H2,1-2H3,(H,21,22,23)

> <Ligand InChI Key>
MBMAILZVMBYPRI-UHFFFAOYSA-N

> <BindingDB MonomerID>
50171964

> <BindingDB Ligand Name>
CHEMBL3805177::US10106508, Compound I-4

> <Target Name Assigned by Curator or DataSource>
Epidermal growth factor receptor

> <Target Source Organism According to Curator or DataSource>


> <Ki (nM)>


> <IC50 (nM)>
1303

> <Kd (nM)>


> <EC50 (nM)>


> <kon (M-1-s-1)>


> <koff (s-1)>


> <pH>


> <Temp C>


> <Curation/DataSource>
ChEMBL

> <Article DOI>
10.1016/j.bmc.2016.01.003

> <PubChem AID>


> <Patent Number>


> <Authors>
Qin, X; Li, Z; Yang, L; Liu, P; Hu, L; Zeng, C; Pan, Z

> <Institution>
Beijing University of Technology

> <Link to Ligand in BindingDB>
http://www.bindingdb.org/bind/chemsearch/marvin/MolStructure.jsp?monomerid=50171964

> <Link to Ligand-Target Pair in BindingDB>
http://www.bindingdb.org/jsp/dbsearch/PrimarySearch_ki.jsp?energyterm=kJ/mole&tag=r21&monomerid=50171964&enzyme=Epidermal+growth+factor+receptor&column=ki&startPg=0&Increment=50&submit=Search

> <Ligand HET ID in PDB>


> <PDB ID(s) for Ligand-Target Complex>


> <PubChem CID>
122417747

> <PubChem SID>
346548587

> <ChEBI ID of Ligand>


> <ChEMBL ID of Ligand>
CHEMBL3805177

> <DrugBank ID of Ligand>


> <IUPHAR_GRAC ID of Ligand>


> <KEGG ID of Ligand>


> <ZINC ID of Ligand>


> <Number of Protein Chains in Target (>
4

> <BindingDB Target Chain Sequence>
MRANDALQVLGLLFSLARGSEVGNSQAVCPGTLNGLSVTGDAENQYQTLYKLYERCEVVMGNLEIVLTGHNADLSFLQWIREVTGYVLVAMNEFSTLPLPNLRVVRGTQVYDGKFAIFVMLNYNTNSSHALRQLRLTQLTEILSGGVYIEKNDKLCHMDTIDWRDIVRDRDAEIVVKDNGRSCPPCHEVCKGRCWGPGSEDCQTLTKTICAPQCNGHCFGPNPNQCCHDECAGGCSGPQDTDCFACRHFNDSGACVPRCPQPLVYNKLTFQLEPNPHTKYQYGGVCVASCPHNFVVDQTSCVRACPPDKMEVDKNGLKMCEPCGGLCPKACEGTGSGSRFQTVDSSNIDGFVNCTKILGNLDFLITGLNGDPWHKIPALDPEKLNVFRTVREITGYLNIQSWPPHMHNFSVFSNLTTIGGRSLYNRGFSLLIMKNLNVTSLGFRSLKEISAGRIYISANRQLCYHHSLNWTKVLRGPTEERLDIKHNRPRRDCVAEGKVCDPLCSSGGCWGPGPGQCLSCRNYSRGGVCVTHCNFLNGEPREFAHEAECFSCHPECQPMEGTATCNGSGSDTCAQCAHFRDGPHCVSSCPHGVLGAKGPIYKYPDVQNECRPCHENCTQGCKGPELQDCLGQTLVLIGKTHLTMALTVIAGLVVIFMMLGGTFLYWRGRRIQNKRAMRRYLERGESIEPLDPSEKANKVLARIFKETELRKLKVLGSGVFGTVHKGVWIPEGESIKIPVCIKVIEDKSGRQSFQAVTDHMLAIGSLDHAHIVRLLGLCPGSSLQLVTQYLPLGSLLDHVRQHRGALGPQLLLNWGVQIAKGMYYLEEHGMVHRNLAARNVLLKSPSQVQVADFGVADLLPPDDKQLLYSEAKTPIKWMALESIHFGKYTHQSDVWSYGVTVWELMTFGAEPYAGLRLAEVPDLLEKGERLAQPQICTIDVYMVMVKCWMIDENIRPTFKELANEFTRMARDPPRYLVIKRESGPGIAPGPEPHGLTNKKLEEVELEPELDLDLDLEAEEDNLATTTLGSALSLPVGTLNRPRGSQSLLSPSSGYMPMNQGNLGESCQESAVSGSSERCPRPVSLHPMPRGCLASESSEGHVTGSEAELQEKVSMCRSRSRSRSPRPRGDSAYHSQRHSLLTPVTPLSPPGLEEEDVNGYVMPDTHLKGTPSSREGTLSSVGLSSVLGTEEEDEDEEYEYMNRRRRHSPPHPPRPSSLEELGYEYMDVGSDLSASLGSTQSCPLHPVPIMPTAGTTPDEDYEYMNRQRDGGGPGGDYAAMGACPASEQGYEEMRAFQGPGHQAPHVHYARLKTLRSLEATDSAFDNPDYWHSRLFPKANAQRT

> <PDB ID(s) of Target Chain>
3KEX,4RIX,4RIY,5CUS,5O4O,5O7P,6OP9

> <UniProt (SwissProt) Recommended Name of Target Chain>
Receptor tyrosine-protein kinase erbB-3

> <UniProt (SwissProt) Entry Name of Target Chain>
ERBB3_HUMAN

> <UniProt (SwissProt) Primary ID of Target Chain>
P21860

> <UniProt (SwissProt) Secondary ID(s) of Target Chain>
A8K6L6,B4DIK7,B4DV32,E9PDT8,Q9BUD7

> <UniProt (SwissProt) Alternative ID(s) of Target Chain>


> <UniProt (TrEMBL) Submitted Name of Target Chain>


> <UniProt (TrEMBL) Entry Name of Target Chain>


> <UniProt (TrEMBL) Primary ID of Target Chain>


> <UniProt (TrEMBL) Secondary ID(s) of Target Chain>


> <UniProt (TrEMBL) Alternative ID(s) of Target Chain>


> <training label>
5.88506

> <i_lp_mmshare_version>
54117

> <s_epik_input>
TzFbQ0gyXVtDSDJdT2MoYzFjMjMpYyhPW0NIXShbQ0gzXSlbQ0gzXSlbY0hdYzNuW2NIXW5jMltOSF1jNFtjSF1jKFtOK10oPU8pW08tXSljKENsKVtjSF1bY0hdNA==

> <s_epik_cmdline>
J2VwaWtfcHl0aG9uJywgJy1waHQnLCAnMC4xJywgJy1waCcsICc3LjQnLCAnLXRuJywgJzgnLCAnLW1hJywgJzIwMCcsICctaW1hZScsICc8aW5maWxlLm1hZT4nLCAnLW9tYWUnLCAnPG91dGZpbGUubWFlPic=

> <r_lp_tautomer_probability>
1

> <r_epik_Ionization_Penalty>
  0.0019

> <r_epik_Ionization_Penalty_Charging>
  0.0000

> <r_epik_Ionization_Penalty_Neutral>
  0.0019

> <r_epik_State_Penalty>
  0.0000

> <r_epik_Charging_Adjusted_Penalty>
0

> <i_epik_Tot_Q>
0

> <i_epik_Tot_abs_Q>
2

> <i_f3d_flags>
0

> <s_lp_Force_Field>
OPLS_2005

> <r_lp_Energy>
28.514542

> <b_lp_Chiralities_Consistent>
1

> <s_lp_Variant>
/home/bortolaa/Project/GT/mario-master/ligands/set505ligs_train.sdf:63-1

> <s_i_glide_gridfile>
struct_1_site_1

> <i_i_glide_lignum>
63

> <i_i_glide_rotatable_bonds>
5

> <r_i_docking_score>
-8.18980167939547

> <r_i_glide_ligand_efficiency>
-0.282406954461913

> <r_i_glide_ligand_efficiency_sa>
-0.867643636910161

> <r_i_glide_ligand_efficiency_ln>
-1.8752569091297

> <r_i_glide_gscore>
-8.18980167939547

> <r_i_glide_lipo>
-3.36317705819693

> <r_i_glide_hbond>
-0.32

> <r_i_glide_metal>
0

> <r_i_glide_rewards>
-1.82702243522815

> <r_i_glide_evdw>
-46.8925437927246

> <r_i_glide_ecoul>
-4.1215443611145

> <r_i_glide_erotb>
0.341200220746867

> <r_i_glide_esite>
-0.0579435629138526

> <r_i_glide_emodel>
-56.0202990455813

> <r_i_glide_energy>
-51.0140881538391

> <r_i_glide_einternal>
6.13160181045532

> <i_i_glide_confnum>
4

> <i_i_glide_posenum>
35

> <r_i_glide_eff_state_penalty>
0

> <PMID>
27234887

> <r_glide_shape_similarity>
0.827931940555573

> <s_m_subgroup_title>
505 training

> <s_m_subgroupid>
pocket_pv

> <b_m_subgroup_collapsed>
0

$$$$
BindingDB_50307772_mol_1
                    3D
 Schrodinger Suite 2021-2.
 52 54  0  0  1  0            999 V2000
   20.1636    0.5328   52.1330 C   0  0  0  0  0  0
   19.3223   -0.3775   52.8220 C   0  0  0  0  0  0
   19.8876   -1.2079   53.8353 C   0  0  0  0  0  0
   21.5156    0.6512   52.5173 C   0  0  0  0  0  0
   22.0726   -0.1756   53.5098 C   0  0  0  0  0  0
   21.2599   -1.1229   54.1855 C   0  0  0  0  0  0
   21.7979   -1.9110   55.1469 N   0  0  0  0  0  0
   23.0971   -1.7539   55.4190 C   0  0  0  0  0  0
   23.9432   -0.9092   54.8334 N   0  0  0  0  0  0
   23.4407   -0.1023   53.8734 C   0  0  0  0  0  0
   19.6555    1.3007   51.1050 O   0  0  0  0  0  0
   17.9914   -0.3939   52.4360 O   0  0  0  0  0  0
   17.0548   -1.1340   53.2078 C   0  0  0  0  0  0
   24.2860    0.8507   53.2767 N   0  0  0  0  0  0
   25.6824    0.9527   53.3422 C   0  0  0  0  0  0
   26.5121   -0.1925   53.3337 C   0  0  0  0  0  0
   27.9155   -0.0522   53.3813 C   0  0  0  0  0  0
   28.5031    1.2299   53.4408 C   0  0  0  0  0  0
   27.6783    2.3717   53.4267 C   0  0  0  0  0  0
   26.2748    2.2370   53.3680 C   0  0  0  0  0  0
   20.5138    1.5104   49.9681 C   0  0  0  0  0  0
   20.0036    2.6906   49.1414 C   0  0  0  0  0  0
   18.8556    2.2601   48.2122 C   0  0  0  0  0  0
   17.7503    3.3075   48.0313 C   0  0  0  0  0  0
   16.9691    3.5499   49.3320 C   0  0  0  0  0  0
   16.7868    4.8468   49.6494 N   0  0  0  0  0  0
   16.5765    2.5924   50.0259 O   0  0  0  0  0  0
   16.4547    5.1337   51.0046 O   0  0  0  0  0  0
   28.7442   -1.2450   53.3677 C   0  0  0  0  0  0
   29.3749   -2.2906   53.3652 C   0  0  0  0  0  0
   19.2721   -1.9179   54.3665 H   0  0  0  0  0  0
   22.1450    1.3907   52.0594 H   0  0  0  0  0  0
   23.5138   -2.3957   56.1790 H   0  0  0  0  0  0
   16.0478   -0.9369   52.8446 H   0  0  0  0  0  0
   17.2340   -2.2055   53.1147 H   0  0  0  0  0  0
   17.0943   -0.8565   54.2628 H   0  0  0  0  0  0
   23.8187    1.6276   52.8305 H   0  0  0  0  0  0
   26.0810   -1.1821   53.2849 H   0  0  0  0  0  0
   29.5784    1.3426   53.4818 H   0  0  0  0  0  0
   28.1180    3.3573   53.4560 H   0  0  0  0  0  0
   25.6670    3.1312   53.3522 H   0  0  0  0  0  0
   21.5464    1.7584   50.2052 H   0  0  0  0  0  0
   20.5609    0.6030   49.3632 H   0  0  0  0  0  0
   19.7207    3.5046   49.8070 H   0  0  0  0  0  0
   20.8111    3.0761   48.5210 H   0  0  0  0  0  0
   19.2656    2.0001   47.2355 H   0  0  0  0  0  0
   18.3965    1.3448   48.5920 H   0  0  0  0  0  0
   18.1805    4.2413   47.6588 H   0  0  0  0  0  0
   17.0427    2.9612   47.2753 H   0  0  0  0  0  0
   17.1940    5.6710   49.2086 H   0  0  0  0  0  0
   16.2909    6.0810   50.9728 H   0  0  0  0  0  0
   29.8884   -3.2262   53.3651 H   0  0  0  0  0  0
  1  2  2  0  0  0
  1  4  1  0  0  0
  1 11  1  0  0  0
  2  3  1  0  0  0
  2 12  1  0  0  0
  3  6  2  0  0  0
  3 31  1  0  0  0
  4  5  2  0  0  0
  4 32  1  0  0  0
  5  6  1  0  0  0
  5 10  1  0  0  0
  6  7  1  0  0  0
  7  8  2  0  0  0
  8  9  1  0  0  0
  8 33  1  0  0  0
  9 10  2  0  0  0
 10 14  1  0  0  0
 11 21  1  0  0  0
 12 13  1  0  0  0
 13 34  1  0  0  0
 13 35  1  0  0  0
 13 36  1  0  0  0
 14 15  1  0  0  0
 14 37  1  0  0  0
 15 16  2  0  0  0
 15 20  1  0  0  0
 16 17  1  0  0  0
 16 38  1  0  0  0
 17 18  2  0  0  0
 17 29  1  0  0  0
 18 19  1  0  0  0
 18 39  1  0  0  0
 19 20  2  0  0  0
 19 40  1  0  0  0
 20 41  1  0  0  0
 21 22  1  0  0  0
 21 42  1  0  0  0
 21 43  1  0  0  0
 22 23  1  0  0  0
 22 44  1  0  0  0
 22 45  1  0  0  0
 23 24  1  0  0  0
 23 46  1  0  0  0
 23 47  1  0  0  0
 24 25  1  0  0  0
 24 48  1  0  0  0
 24 49  1  0  0  0
 25 26  1  0  0  0
 25 27  2  0  0  0
 26 28  1  0  0  0
 26 50  1  0  0  0
 28 51  1  0  0  0
 29 30  3  0  0  0
 30 52  1  0  0  0
M  END
> <s_m_entry_id>
216

> <s_m_entry_name>
pocket_pv.27

> <s_m_Source_Path>
/home/bortolaa/Project/GT/mario-master/docking/set505protein_struct_1_site_1_set505ligs_train

> <s_m_Source_File>
pocket_pv.maegz

> <i_m_Source_File_Index>
27

> <From>
www.bindingDB.org

> <BindingDB Reactant_set_id>
50552096

> <Ligand InChI>
InChI=1S/C22H22N4O4/c1-3-15-7-6-8-16(11-15)25-22-17-12-20(30-10-5-4-9-21(27)26-28)19(29-2)13-18(17)23-14-24-22/h1,6-8,11-14,28H,4-5,9-10H2,2H3,(H,26,27)(H,23,24,25)

> <Ligand InChI Key>
YTSHEQYHNLLMSR-UHFFFAOYSA-N

> <BindingDB MonomerID>
50307772

> <BindingDB Ligand Name>
5-(4-(3-Ethynylphenylamino)-7-methoxyquinazolin-6-yloxy)-N-hydroxypentanamide::CHEMBL599398

> <Target Name Assigned by Curator or DataSource>
Epidermal growth factor receptor

> <Target Source Organism According to Curator or DataSource>
Homo sapiens

> <Ki (nM)>


> <Kd (nM)>


> <EC50 (nM)>


> <kon (M-1-s-1)>


> <koff (s-1)>


> <pH>


> <Temp C>


> <Curation/DataSource>
ChEMBL

> <Article DOI>
10.1021/jm901453q

> <PubChem AID>


> <Patent Number>


> <Authors>
Cai, X; Zhai, HX; Wang, J; Forrester, J; Qu, H; Yin, L; Lai, CJ; Bao, R; Qian, C

> <Institution>
Curis Inc

> <Link to Ligand in BindingDB>
http://www.bindingdb.org/bind/chemsearch/marvin/MolStructure.jsp?monomerid=50307772

> <Link to Ligand-Target Pair in BindingDB>
http://www.bindingdb.org/jsp/dbsearch/PrimarySearch_ki.jsp?energyterm=kJ/mole&tag=r21&monomerid=50307772&enzyme=Epidermal+growth+factor+receptor&column=ki&startPg=0&Increment=50&submit=Search

> <Ligand HET ID in PDB>


> <PDB ID(s) for Ligand-Target Complex>


> <PubChem CID>
24944934

> <PubChem SID>
104162133

> <ChEBI ID of Ligand>


> <ChEMBL ID of Ligand>
CHEMBL599398

> <DrugBank ID of Ligand>


> <IUPHAR_GRAC ID of Ligand>


> <KEGG ID of Ligand>


> <ZINC ID of Ligand>
ZINC45368772

> <Number of Protein Chains in Target (>
1

> <BindingDB Target Chain Sequence>
MRPSGTAGAALLALLAALCPASRALEEKKVCQGTSNKLTQLGTFEDHFLSLQRMFNNCEVVLGNLEITYVQRNYDLSFLKTIQEVAGYVLIALNTVERIPLENLQIIRGNMYYENSYALAVLSNYDANKTGLKELPMRNLQEILHGAVRFSNNPALCNVESIQWRDIVSSDFLSNMSMDFQNHLGSCQKCDPSCPNGSCWGAGEENCQKLTKIICAQQCSGRCRGKSPSDCCHNQCAAGCTGPRESDCLVCRKFRDEATCKDTCPPLMLYNPTTYQMDVNPEGKYSFGATCVKKCPRNYVVTDHGSCVRACGADSYEMEEDGVRKCKKCEGPCRKVCNGIGIGEFKDSLSINATNIKHFKNCTSISGDLHILPVAFRGDSFTHTPPLDPQELDILKTVKEITGFLLIQAWPENRTDLHAFENLEIIRGRTKQHGQFSLAVVSLNITSLGLRSLKEISDGDVIISGNKNLCYANTINWKKLFGTSGQKTKIISNRGENSCKATGQVCHALCSPEGCWGPEPRDCVSCRNVSRGRECVDKCNLLEGEPREFVENSECIQCHPECLPQAMNITCTGRGPDNCIQCAHYIDGPHCVKTCPAGVMGENNTLVWKYADAGHVCHLCHPNCTYGCTGPGLEGCPTNGPKIPSIATGMVGALLLLLVVALGIGLFMRRRHIVRKRTLRRLLQERELVEPLTPSGEAPNQALLRILKETEFKKIKVLGSGAFGTVYKGLWIPEGEKVKIPVAIKELREATSPKANKEILDEAYVMASVDNPHVCRLLGICLTSTVQLITQLMPFGCLLDYVREHKDNIGSQYLLNWCVQIAKGMNYLEDRRLVHRDLAARNVLVKTPQHVKITDFGLAKLLGAEEKEYHAEGGKVPIKWMALESILHRIYTHQSDVWSYGVTVWELMTFGSKPYDGIPASEISSILEKGERLPQPPICTIDVYMIMVKCWMIDADSRPKFRELIIEFSKMARDPQRYLVIQGDERMHLPSPTDSNFYRALMDEEDMDDVVDADEYLIPQQGFFSSPSTSRTPLLSSLSATSNNSTVACIDRNGLQSCPIKEDSFLQRYSSDPTGALTEDSIDDTFLPVPEYINQSVPKRPAGSVQNPVYHNQPLNPAPSRDPHYQDPHSTAVGNPEYLNTVQPTCVNSTFDSPAHWAQKGSHQISLDNPDYQQDFFPKEAKPNGIFKGSTAENAEYLRVAPQSSEFIGA

> <PDB ID(s) of Target Chain>
1IVO,1M14,1M17,1MOX,1XKK,1Z9I,2GS2,2GS6,2ITW,2ITX,2ITY,2J5E,2J5F,2J6M,2RF9,2RGP,3B2V,3BEL,3GOP,3POZ,3QWQ,3VJO,3W2O,3W2P,3W2Q,3W2R,3W2S,3W32,3W33,4G5J,4I23,4JQ7,4JQ8,4JR3,4JRV,4KRO,4LI5,4RJ4,4RJ5,4RJ6,4RJ7,4RJ8,4TKS,4UIP,4UV7,4WKQ,4WRG,4ZAU,5C8K,5C8M,5C8N,5CAL,5CAN,5CAO,5CAP,5CAQ,5CAS,5CAU,5CAV,5EDP,5EDQ,5EDR,5EM5,5EM6,5EM7,5EM8,5FED,5GNK,5HCX,5HCY,5HCZ,5HIB,5HIC,5UGB,5WB7,5WB8,5Y25,6S89,6S8A

> <UniProt (SwissProt) Recommended Name of Target Chain>
Epidermal growth factor receptor

> <UniProt (SwissProt) Entry Name of Target Chain>
EGFR_HUMAN

> <UniProt (SwissProt) Primary ID of Target Chain>
P00533

> <UniProt (SwissProt) Secondary ID(s) of Target Chain>
O00688,O00732,P06268,Q14225,Q68GS5,Q92795,Q9BZS2,Q9GZX1,Q9H2C9,Q9H3C9,Q9UMD7,Q9UMD8,Q9UMG5

> <UniProt (SwissProt) Alternative ID(s) of Target Chain>


> <UniProt (TrEMBL) Submitted Name of Target Chain>


> <UniProt (TrEMBL) Entry Name of Target Chain>


> <UniProt (TrEMBL) Primary ID of Target Chain>


> <UniProt (TrEMBL) Secondary ID(s) of Target Chain>


> <UniProt (TrEMBL) Alternative ID(s) of Target Chain>


> <training label>
7.82391

> <i_lp_mmshare_version>
54117

> <s_epik_input>
W09IXVtOSF1DKD1PKVtDSDJdW0NIMl1bQ0gyXVtDSDJdT2MoW2NIXTEpYyhPW0NIM10pW2NIXWMoYzEyKW5bY0hdbmMyW05IXWMzW2NIXWMoQyNbQ0hdKVtjSF1bY0hdW2NIXTM=

> <s_epik_cmdline>
J2VwaWtfcHl0aG9uJywgJy1waHQnLCAnMC4xJywgJy1waCcsICc3LjQnLCAnLXRuJywgJzgnLCAnLW1hJywgJzIwMCcsICctaW1hZScsICc8aW5maWxlLm1hZT4nLCAnLW9tYWUnLCAnPG91dGZpbGUubWFlPic=

> <r_lp_tautomer_probability>
1

> <r_epik_Ionization_Penalty>
  0.0106

> <r_epik_Ionization_Penalty_Charging>
  0.0000

> <r_epik_Ionization_Penalty_Neutral>
  0.0106

> <r_epik_State_Penalty>
  0.0000

> <r_epik_Charging_Adjusted_Penalty>
0

> <i_epik_Tot_Q>
0

> <i_epik_Tot_abs_Q>
0

> <i_f3d_flags>
0

> <s_lp_Force_Field>
OPLS_2005

> <r_lp_Energy>
25.668244

> <b_lp_Chiralities_Consistent>
1

> <s_lp_Variant>
BindingDB_50307772_mol_1-1

> <s_i_glide_gridfile>
struct_1_site_1

> <i_i_glide_lignum>
219

> <i_i_glide_rotatable_bonds>
12

> <r_i_docking_score>
-8.18931499715352

> <r_i_glide_ligand_efficiency>
-0.272977166571784

> <r_i_glide_ligand_efficiency_sa>
-0.848203524393393

> <r_i_glide_ligand_efficiency_ln>
-1.86070159708691

> <r_i_glide_gscore>
-8.18931499715352

> <r_i_glide_lipo>
-3.29188545414723

> <r_i_glide_hbond>
-0.297729329879691

> <r_i_glide_metal>
0

> <r_i_glide_rewards>
-1.78051388169658

> <r_i_glide_evdw>
-41.6742630004883

> <r_i_glide_ecoul>
-12.2514543533325

> <r_i_glide_erotb>
1.19028859837381

> <r_i_glide_esite>
-0.088043626779537

> <r_i_glide_emodel>
-67.1556263990986

> <r_i_glide_energy>
-53.9257173538208

> <r_i_glide_einternal>
12.184473991394

> <i_i_glide_confnum>
553

> <i_i_glide_posenum>
4

> <r_i_glide_eff_state_penalty>
0

> <IC50 (nM)>
15

> <PMID>
20143778

> <s_epik_Chemistry_Notes>
This compound has a N-S or N-O group and may undergo hydrolysis at high or low pH.

> <r_glide_shape_similarity>
0.87226140499115

> <s_m_subgroup_title>
505 training

> <s_m_subgroupid>
pocket_pv

> <b_m_subgroup_collapsed>
0

$$$$
BindingDB_50172055_mol_1
                    3D
 Schrodinger Suite 2021-2.
 89 95  0  0  1  0            999 V2000
   15.1042    2.5719   49.6972 S   0  0  0  0  0  0
   15.8562    1.0806   50.1865 N   0  0  3  0  0  0
   17.8339    0.3123   51.5750 C   0  0  0  0  0  0
   23.1982    3.6264   52.0140 C   0  0  0  0  0  0
   17.3191    0.9402   50.2722 C   0  0  0  0  0  0
   22.2515    2.6643   52.1738 N   0  0  0  0  0  0
   24.6847    3.2161   51.8690 C   0  0  1  0  0  0
   25.4839    4.7194   50.0300 C   0  0  0  0  0  0
   19.2235    0.3043   51.8898 C   0  0  0  0  0  0
   20.1387    1.0517   51.1225 N   0  0  0  0  0  0
   25.4880    4.3130   51.3152 N   0  0  0  0  0  0
   25.8297    7.1322   50.5745 N   0  0  2  0  0  0
   26.2702    6.0112   49.7159 C   0  0  2  0  0  0
   16.1494    3.4419   49.1316 O   0  0  0  0  0  0
   13.9137    2.2197   48.9054 O   0  0  0  0  0  0
   14.5646    3.2757   51.2628 C   0  0  0  0  0  0
   26.1838    6.4366   48.2292 C   0  0  0  0  0  0
   26.8102    7.7988   47.9502 C   0  0  0  0  0  0
   16.9203   -0.3772   52.4118 C   0  0  0  0  0  0
   15.0711   -0.0420   50.7121 C   0  0  0  0  0  0
   25.2097    2.8700   53.2852 C   0  0  0  0  0  0
   26.7640    8.2497   50.4613 C   0  0  0  0  0  0
   20.8457    2.9969   52.4374 C   0  0  0  0  0  0
   22.4539    1.2054   52.1084 C   0  0  0  0  0  0
   21.5239    0.5791   51.0319 C   0  0  0  0  0  0
   19.9974    2.5003   51.2645 C   0  0  0  0  0  0
   22.9109    4.8257   52.0416 O   0  0  0  0  0  0
   24.8839    4.1066   49.1430 O   0  0  0  0  0  0
   27.0845    8.6717   49.0313 C   0  0  0  0  0  0
   15.4217   -0.2601   52.1886 C   0  0  0  0  0  0
   26.2651    1.7882   53.3379 C   0  0  0  0  0  0
   28.2102   -0.2504   53.3848 C   0  0  0  0  0  0
   29.3842   -1.5154   53.3754 Cl  0  0  0  0  0  0
   27.6351    2.1245   53.3544 C   0  0  0  0  0  0
   25.8715    0.4341   53.3793 C   0  0  0  0  0  0
   28.6057    1.1041   53.3788 C   0  0  0  0  0  0
   26.8439   -0.5799   53.3947 C   0  0  0  0  0  0
   19.6690   -0.4677   52.9877 C   0  0  0  0  0  0
   18.7709   -1.2297   53.7502 C   0  0  0  0  0  0
   17.3955   -1.1722   53.4691 C   0  0  0  0  0  0
   27.1066    8.2015   46.6287 C   0  0  0  0  0  0
   13.1881    3.2948   51.5839 C   0  0  0  0  0  0
   15.5176    3.8036   52.1631 C   0  0  0  0  0  0
   27.6781    9.9306   48.7871 C   0  0  0  0  0  0
   27.6937    9.4631   46.3861 C   0  0  0  0  0  0
   27.9794   10.3225   47.4662 C   0  0  0  0  0  0
   15.0869    4.3329   53.4023 C   0  0  0  0  0  0
   12.7627    3.8246   52.8226 C   0  0  0  0  0  0
   13.7141    4.3328   53.7332 C   0  0  0  0  0  0
   17.7758    1.9057   50.0851 H   0  0  0  0  0  0
   17.6455    0.3075   49.4452 H   0  0  0  0  0  0
   24.7784    2.3695   51.1902 H   0  0  0  0  0  0
   26.0095    4.8783   51.9932 H   0  0  0  0  0  0
   25.8368    6.8513   51.5546 H   0  0  0  0  0  0
   27.3140    5.7866   49.9289 H   0  0  0  0  0  0
   25.1437    6.4772   47.9038 H   0  0  0  0  0  0
   26.6842    5.6897   47.6161 H   0  0  0  0  0  0
   15.3048   -0.9371   50.1324 H   0  0  0  0  0  0
   14.0027    0.1493   50.5949 H   0  0  0  0  0  0
   25.5766    3.7693   53.7755 H   0  0  0  0  0  0
   24.3950    2.5237   53.9199 H   0  0  0  0  0  0
   27.6958    7.9972   50.9732 H   0  0  0  0  0  0
   26.3307    9.1060   50.9744 H   0  0  0  0  0  0
   20.5239    2.5238   53.3652 H   0  0  0  0  0  0
   20.6727    4.0625   52.5737 H   0  0  0  0  0  0
   23.4681    0.9103   51.8612 H   0  0  0  0  0  0
   22.2709    0.8068   53.1049 H   0  0  0  0  0  0
   21.8965    0.8628   50.0431 H   0  0  0  0  0  0
   21.5686   -0.5084   51.0678 H   0  0  0  0  0  0
   20.2939    2.9914   50.3362 H   0  0  0  0  0  0
   18.9720    2.7957   51.4740 H   0  0  0  0  0  0
   14.9219   -1.1561   52.5584 H   0  0  0  0  0  0
   15.0560    0.5753   52.7901 H   0  0  0  0  0  0
   27.9443    3.1617   53.3406 H   0  0  0  0  0  0
   24.8264    0.1637   53.4061 H   0  0  0  0  0  0
   29.6568    1.3594   53.3844 H   0  0  0  0  0  0
   26.5410   -1.6174   53.4168 H   0  0  0  0  0  0
   20.7064   -0.5301   53.2599 H   0  0  0  0  0  0
   19.1280   -1.8338   54.5693 H   0  0  0  0  0  0
   16.6970   -1.7180   54.0901 H   0  0  0  0  0  0
   26.8904    7.5454   45.8014 H   0  0  0  0  0  0
   12.4543    2.9076   50.8930 H   0  0  0  0  0  0
   16.5676    3.7969   51.9075 H   0  0  0  0  0  0
   27.9141   10.5919   49.6083 H   0  0  0  0  0  0
   27.9166    9.7690   45.3735 H   0  0  0  0  0  0
   28.4317   11.2850   47.2821 H   0  0  0  0  0  0
   15.8028    4.7344   54.1020 H   0  0  0  0  0  0
   11.7096    3.8399   53.0671 H   0  0  0  0  0  0
   13.3916    4.7365   54.6835 H   0  0  0  0  0  0
  1  2  1  0  0  0
  1 14  2  0  0  0
  1 15  2  0  0  0
  1 16  1  0  0  0
  2  5  1  0  0  0
  2 20  1  0  0  0
  3  5  1  0  0  0
  3  9  1  0  0  0
  3 19  2  0  0  0
  4  6  1  0  0  0
  4  7  1  0  0  0
  4 27  2  0  0  0
  5 50  1  0  0  0
  5 51  1  0  0  0
  6 23  1  0  0  0
  6 24  1  0  0  0
  7 11  1  0  0  0
  7 21  1  0  0  0
  7 52  1  0  0  0
  8 11  1  0  0  0
  8 13  1  0  0  0
  8 28  2  0  0  0
  9 10  1  0  0  0
  9 38  2  0  0  0
 10 25  1  0  0  0
 10 26  1  0  0  0
 11 53  1  0  0  0
 12 13  1  0  0  0
 12 22  1  0  0  0
 12 54  1  0  0  0
 13 17  1  0  0  0
 13 55  1  0  0  0
 16 42  2  0  0  0
 16 43  1  0  0  0
 17 18  1  0  0  0
 17 56  1  0  0  0
 17 57  1  0  0  0
 18 29  2  0  0  0
 18 41  1  0  0  0
 19 30  1  0  0  0
 19 40  1  0  0  0
 20 30  1  0  0  0
 20 58  1  0  0  0
 20 59  1  0  0  0
 21 31  1  0  0  0
 21 60  1  0  0  0
 21 61  1  0  0  0
 22 29  1  0  0  0
 22 62  1  0  0  0
 22 63  1  0  0  0
 23 26  1  0  0  0
 23 64  1  0  0  0
 23 65  1  0  0  0
 24 25  1  0  0  0
 24 66  1  0  0  0
 24 67  1  0  0  0
 25 68  1  0  0  0
 25 69  1  0  0  0
 26 70  1  0  0  0
 26 71  1  0  0  0
 29 44  1  0  0  0
 30 72  1  0  0  0
 30 73  1  0  0  0
 31 34  1  0  0  0
 31 35  2  0  0  0
 32 33  1  0  0  0
 32 36  1  0  0  0
 32 37  2  0  0  0
 34 36  2  0  0  0
 34 74  1  0  0  0
 35 37  1  0  0  0
 35 75  1  0  0  0
 36 76  1  0  0  0
 37 77  1  0  0  0
 38 39  1  0  0  0
 38 78  1  0  0  0
 39 40  2  0  0  0
 39 79  1  0  0  0
 40 80  1  0  0  0
 41 45  2  0  0  0
 41 81  1  0  0  0
 42 48  1  0  0  0
 42 82  1  0  0  0
 43 47  2  0  0  0
 43 83  1  0  0  0
 44 46  2  0  0  0
 44 84  1  0  0  0
 45 46  1  0  0  0
 45 85  1  0  0  0
 46 86  1  0  0  0
 47 49  1  0  0  0
 47 87  1  0  0  0
 48 49  2  0  0  0
 48 88  1  0  0  0
 49 89  1  0  0  0
M  END
> <s_m_entry_id>
217

> <s_m_entry_name>
pocket_pv.28

> <s_m_Source_Path>
/home/bortolaa/Project/GT/mario-master/docking/set505protein_struct_1_site_1_set505ligs_train

> <s_m_Source_File>
pocket_pv.maegz

> <i_m_Source_File_Index>
28

> <From>
www.bindingDB.org

> <BindingDB Reactant_set_id>
50497591

> <Ligand InChI>
InChI=1S/C23H24ClFN4O4/c24-16-12-15(2-3-17(16)25)28-23-20-18(26-14-27-23)13-19(21-22(20)33-11-10-32-21)31-7-1-4-29-5-8-30-9-6-29/h2-3,12-14H,1,4-11H2,(H,26,27,28)

> <Ligand InChI Key>
NVESEOKYLHXNPU-UHFFFAOYSA-N

> <BindingDB MonomerID>
50172055

> <BindingDB Ligand Name>
CHEMBL3805218

> <Target Name Assigned by Curator or DataSource>
Epidermal growth factor receptor

> <Target Source Organism According to Curator or DataSource>
Homo sapiens

> <Ki (nM)>


> <Kd (nM)>


> <EC50 (nM)>


> <kon (M-1-s-1)>


> <koff (s-1)>


> <pH>


> <Temp C>


> <Curation/DataSource>
ChEMBL

> <Article DOI>
10.1016/j.bmc.2016.01.003

> <PubChem AID>


> <Patent Number>


> <Authors>
Qin, X; Li, Z; Yang, L; Liu, P; Hu, L; Zeng, C; Pan, Z

> <Institution>
Beijing University of Technology

> <Link to Ligand in BindingDB>
http://www.bindingdb.org/bind/chemsearch/marvin/MolStructure.jsp?monomerid=50172055

> <Link to Ligand-Target Pair in BindingDB>
http://www.bindingdb.org/jsp/dbsearch/PrimarySearch_ki.jsp?energyterm=kJ/mole&tag=r21&monomerid=50172055&enzyme=Epidermal+growth+factor+receptor&column=ki&startPg=0&Increment=50&submit=Search

> <Ligand HET ID in PDB>


> <PDB ID(s) for Ligand-Target Complex>


> <PubChem CID>
127049195

> <PubChem SID>
104058208

> <ChEBI ID of Ligand>


> <ChEMBL ID of Ligand>
CHEMBL3805218

> <DrugBank ID of Ligand>


> <IUPHAR_GRAC ID of Ligand>


> <KEGG ID of Ligand>


> <ZINC ID of Ligand>
ZINC28528428

> <Number of Protein Chains in Target (>
1

> <BindingDB Target Chain Sequence>
MRPSGTAGAALLALLAALCPASRALEEKKVCQGTSNKLTQLGTFEDHFLSLQRMFNNCEVVLGNLEITYVQRNYDLSFLKTIQEVAGYVLIALNTVERIPLENLQIIRGNMYYENSYALAVLSNYDANKTGLKELPMRNLQEILHGAVRFSNNPALCNVESIQWRDIVSSDFLSNMSMDFQNHLGSCQKCDPSCPNGSCWGAGEENCQKLTKIICAQQCSGRCRGKSPSDCCHNQCAAGCTGPRESDCLVCRKFRDEATCKDTCPPLMLYNPTTYQMDVNPEGKYSFGATCVKKCPRNYVVTDHGSCVRACGADSYEMEEDGVRKCKKCEGPCRKVCNGIGIGEFKDSLSINATNIKHFKNCTSISGDLHILPVAFRGDSFTHTPPLDPQELDILKTVKEITGFLLIQAWPENRTDLHAFENLEIIRGRTKQHGQFSLAVVSLNITSLGLRSLKEISDGDVIISGNKNLCYANTINWKKLFGTSGQKTKIISNRGENSCKATGQVCHALCSPEGCWGPEPRDCVSCRNVSRGRECVDKCNLLEGEPREFVENSECIQCHPECLPQAMNITCTGRGPDNCIQCAHYIDGPHCVKTCPAGVMGENNTLVWKYADAGHVCHLCHPNCTYGCTGPGLEGCPTNGPKIPSIATGMVGALLLLLVVALGIGLFMRRRHIVRKRTLRRLLQERELVEPLTPSGEAPNQALLRILKETEFKKIKVLGSGAFGTVYKGLWIPEGEKVKIPVAIKELREATSPKANKEILDEAYVMASVDNPHVCRLLGICLTSTVQLITQLMPFGCLLDYVREHKDNIGSQYLLNWCVQIAKGMNYLEDRRLVHRDLAARNVLVKTPQHVKITDFGLAKLLGAEEKEYHAEGGKVPIKWMALESILHRIYTHQSDVWSYGVTVWELMTFGSKPYDGIPASEISSILEKGERLPQPPICTIDVYMIMVKCWMIDADSRPKFRELIIEFSKMARDPQRYLVIQGDERMHLPSPTDSNFYRALMDEEDMDDVVDADEYLIPQQGFFSSPSTSRTPLLSSLSATSNNSTVACIDRNGLQSCPIKEDSFLQRYSSDPTGALTEDSIDDTFLPVPEYINQSVPKRPAGSVQNPVYHNQPLNPAPSRDPHYQDPHSTAVGNPEYLNTVQPTCVNSTFDSPAHWAQKGSHQISLDNPDYQQDFFPKEAKPNGIFKGSTAENAEYLRVAPQSSEFIGA

> <PDB ID(s) of Target Chain>
1IVO,1M14,1M17,1MOX,1XKK,1Z9I,2GS2,2GS6,2ITW,2ITX,2ITY,2J5E,2J5F,2J6M,2RF9,2RGP,3B2V,3BEL,3GOP,3POZ,3QWQ,3VJO,3W2O,3W2P,3W2Q,3W2R,3W2S,3W32,3W33,4G5J,4I23,4JQ7,4JQ8,4JR3,4JRV,4KRO,4LI5,4RJ4,4RJ5,4RJ6,4RJ7,4RJ8,4TKS,4UIP,4UV7,4WKQ,4WRG,4ZAU,5C8K,5C8M,5C8N,5CAL,5CAN,5CAO,5CAP,5CAQ,5CAS,5CAU,5CAV,5EDP,5EDQ,5EDR,5EM5,5EM6,5EM7,5EM8,5FED,5GNK,5HCX,5HCY,5HCZ,5HIB,5HIC,5UGB,5WB7,5WB8,5Y25,6S89,6S8A

> <UniProt (SwissProt) Recommended Name of Target Chain>
Epidermal growth factor receptor

> <UniProt (SwissProt) Entry Name of Target Chain>
EGFR_HUMAN

> <UniProt (SwissProt) Primary ID of Target Chain>
P00533

> <UniProt (SwissProt) Secondary ID(s) of Target Chain>
O00688,O00732,P06268,Q14225,Q68GS5,Q92795,Q9BZS2,Q9GZX1,Q9H2C9,Q9H3C9,Q9UMD7,Q9UMD8,Q9UMG5

> <UniProt (SwissProt) Alternative ID(s) of Target Chain>


> <UniProt (TrEMBL) Submitted Name of Target Chain>


> <UniProt (TrEMBL) Entry Name of Target Chain>


> <UniProt (TrEMBL) Primary ID of Target Chain>


> <UniProt (TrEMBL) Secondary ID(s) of Target Chain>


> <UniProt (TrEMBL) Alternative ID(s) of Target Chain>


> <training label>
7.58503

> <i_lp_mmshare_version>
54117

> <s_epik_input>
W2NIXTFbY0hdW2NIXVtjSF1bY0hdYzFTKD1PKSg9TylOKFtDSDJdMilbQ0gyXVtDSDJdYyhjMjMpW2NIXVtjSF1bY0hdYzNOKFtDSDJdW0NIMl00KVtDSDJdW0NIMl1ONEMoPU8pW0NASF0oW0NIMl1jNVtjSF1bY0hdYyhDbClbY0hdW2NIXTUpW05IXUMoPU8pW0NAQEhdKFtDSDJdNilbTkhdW0NIMl1jKGM2NylbY0hdW2NIXVtjSF1bY0hdNw==

> <s_epik_cmdline>
J2VwaWtfcHl0aG9uJywgJy1waHQnLCAnMC4xJywgJy1waCcsICc3LjQnLCAnLXRuJywgJzgnLCAnLW1hJywgJzIwMCcsICctaW1hZScsICc8aW5maWxlLm1hZT4nLCAnLW9tYWUnLCAnPG91dGZpbGUubWFlPic=

> <r_epik_Ionization_Penalty>
  0.0767

> <r_epik_Ionization_Penalty_Charging>
  0.0000

> <r_epik_Ionization_Penalty_Neutral>
  0.0767

> <r_epik_State_Penalty>
  0.0675

> <r_epik_Charging_Adjusted_Penalty>
0.0675293438596241

> <i_epik_Tot_Q>
0

> <i_epik_Tot_abs_Q>
0

> <i_f3d_flags>
0

> <s_lp_Force_Field>
OPLS_2005

> <r_lp_Energy>
57.106287

> <b_lp_Chiralities_Consistent>
1

> <s_lp_Variant>
BindingDB_50172055_mol_1-1

> <s_i_glide_gridfile>
struct_1_site_1

> <i_i_glide_lignum>
203

> <i_i_glide_rotatable_bonds>
10

> <r_i_docking_score>
-8.18343164696746

> <r_i_glide_ligand_efficiency>
-0.167008809121785

> <r_i_glide_ligand_efficiency_sa>
-0.611136288050673

> <r_i_glide_ligand_efficiency_ln>
-1.67288067595781

> <r_i_glide_gscore>
-8.25093164696746

> <r_i_glide_lipo>
-3.58669616461533

> <r_i_glide_hbond>
-0.271487331632973

> <r_i_glide_metal>
0

> <r_i_glide_rewards>
-0.267689106106817

> <r_i_glide_evdw>
-58.8939590454102

> <r_i_glide_ecoul>
-7.81909227371216

> <r_i_glide_erotb>
0.177329137248859

> <r_i_glide_esite>
-0.18482638853386

> <r_i_glide_emodel>
-34.0640783293628

> <r_i_glide_energy>
-66.7130513191223

> <r_i_glide_einternal>
6.63656044006348

> <i_i_glide_confnum>
565

> <i_i_glide_posenum>
73

> <r_i_glide_eff_state_penalty>
0.0675

> <IC50 (nM)>
26

> <PMID>
27234887

> <r_glide_shape_similarity>
0.345636755228043

> <s_m_subgroup_title>
505 training

> <s_m_subgroupid>
pocket_pv

> <b_m_subgroup_collapsed>
0

$$$$
/home/bortolaa/Project/GT/mario-master/ligands/set505ligs_train.sdf:255
                    3D
 Schrodinger Suite 2021-2.
 53 56  0  0  1  0            999 V2000
   21.7984   -1.9022   55.1437 N   0  0  0  0  0  0
   23.0967   -1.7479   55.4158 C   0  0  0  0  0  0
   23.9399   -0.8969   54.8332 N   0  0  0  0  0  0
   23.4377   -0.0958   53.8691 C   0  0  0  0  0  0
   22.0722   -0.1665   53.4963 C   0  0  0  0  0  0
   21.5231    0.6498   52.4771 C   0  0  0  0  0  0
   20.1639    0.5362   52.1165 C   0  0  0  0  0  0
   19.3332   -0.3682   52.8141 C   0  0  0  0  0  0
   19.8877   -1.1971   53.8314 C   0  0  0  0  0  0
   21.2606   -1.1129   54.1797 C   0  0  0  0  0  0
   24.2868    0.8519   53.2730 N   0  0  0  0  0  0
   18.0211   -0.3819   52.3832 O   0  0  0  0  0  0
   16.9908   -0.8768   53.2216 C   0  0  0  0  0  0
   15.7210   -0.0317   52.9298 C   0  0  0  0  0  0
   14.4634   -0.8523   52.5907 C   0  0  0  0  0  0
   14.6892   -2.8401   50.9444 C   0  0  0  0  0  0
   14.6916   -3.0356   49.6144 N   0  0  0  0  0  0
   14.6128   -1.7570   49.0530 C   0  0  0  0  0  0
   14.5351   -0.8229   50.0657 C   0  0  0  0  0  0
   14.5698   -1.5188   51.2833 N   0  0  0  0  0  0
   14.8316   -3.9849   51.8571 N   0  3  0  0  0  0
   14.7215   -5.1203   51.3769 O   0  0  0  0  0  0
   15.0782   -3.7790   53.0432 O   0  5  0  0  0  0
   19.5832    1.2799   51.1039 O   0  0  0  0  0  0
   20.4162    1.7673   50.0503 C   0  0  0  0  0  0
   25.6833    0.9522   53.3398 C   0  0  0  0  0  0
   26.5133   -0.1913   53.3342 C   0  0  0  0  0  0
   27.9153   -0.0530   53.3838 C   0  0  0  0  0  0
   28.5032    1.2283   53.4387 C   0  0  0  0  0  0
   27.6799    2.3695   53.4254 C   0  0  0  0  0  0
   26.2767    2.2341   53.3697 C   0  0  0  0  0  0
   28.7432   -1.2461   53.3685 C   0  0  0  0  0  0
   29.3767   -2.2897   53.3568 C   0  0  0  0  0  0
   23.5145   -2.3930   56.1749 H   0  0  0  0  0  0
   22.1480    1.3558   51.9528 H   0  0  0  0  0  0
   19.2644   -1.9021   54.3581 H   0  0  0  0  0  0
   23.8205    1.6292   52.8302 H   0  0  0  0  0  0
   16.8464   -1.9296   52.9768 H   0  0  0  0  0  0
   17.2408   -0.8259   54.2834 H   0  0  0  0  0  0
   15.4930    0.6094   53.7776 H   0  0  0  0  0  0
   15.9187    0.6615   52.1077 H   0  0  0  0  0  0
   14.2379   -1.5721   53.3744 H   0  0  0  0  0  0
   13.6061   -0.1794   52.5463 H   0  0  0  0  0  0
   14.6145   -1.6087   47.9806 H   0  0  0  0  0  0
   14.4459    0.2539   50.0293 H   0  0  0  0  0  0
   19.7875    2.1218   49.2324 H   0  0  0  0  0  0
   21.0279    2.6107   50.3835 H   0  0  0  0  0  0
   21.0682    0.9844   49.6573 H   0  0  0  0  0  0
   26.0794   -1.1786   53.2739 H   0  0  0  0  0  0
   29.5789    1.3390   53.4809 H   0  0  0  0  0  0
   28.1235    3.3543   53.4520 H   0  0  0  0  0  0
   25.6673    3.1266   53.3631 H   0  0  0  0  0  0
   29.8870   -3.2298   53.3628 H   0  0  0  0  0  0
  1  2  2  0  0  0
  1 10  1  0  0  0
  2  3  1  0  0  0
  2 34  1  0  0  0
  3  4  2  0  0  0
  4  5  1  0  0  0
  4 11  1  0  0  0
  5  6  2  0  0  0
  5 10  1  0  0  0
  6  7  1  0  0  0
  6 35  1  0  0  0
  7  8  2  0  0  0
  7 24  1  0  0  0
  8  9  1  0  0  0
  8 12  1  0  0  0
  9 10  2  0  0  0
  9 36  1  0  0  0
 11 26  1  0  0  0
 11 37  1  0  0  0
 12 13  1  0  0  0
 13 14  1  0  0  0
 13 38  1  0  0  0
 13 39  1  0  0  0
 14 15  1  0  0  0
 14 40  1  0  0  0
 14 41  1  0  0  0
 15 20  1  0  0  0
 15 42  1  0  0  0
 15 43  1  0  0  0
 16 17  2  0  0  0
 16 20  1  0  0  0
 16 21  1  0  0  0
 17 18  1  0  0  0
 18 19  2  0  0  0
 18 44  1  0  0  0
 19 20  1  0  0  0
 19 45  1  0  0  0
 21 22  2  0  0  0
 21 23  1  0  0  0
 24 25  1  0  0  0
 25 46  1  0  0  0
 25 47  1  0  0  0
 25 48  1  0  0  0
 26 27  2  0  0  0
 26 31  1  0  0  0
 27 28  1  0  0  0
 27 49  1  0  0  0
 28 29  2  0  0  0
 28 32  1  0  0  0
 29 30  1  0  0  0
 29 50  1  0  0  0
 30 31  2  0  0  0
 30 51  1  0  0  0
 31 52  1  0  0  0
 32 33  3  0  0  0
 33 53  1  0  0  0
M  CHG  2  21   1  23  -1
M  END
> <s_m_entry_id>
218

> <s_m_entry_name>
pocket_pv.29

> <s_m_Source_Path>
/home/bortolaa/Project/GT/mario-master/docking/set505protein_struct_1_site_1_set505ligs_train

> <s_m_Source_File>
pocket_pv.maegz

> <i_m_Source_File_Index>
29

> <From>
www.bindingDB.org

> <BindingDB Reactant_set_id>
50258913

> <Ligand InChI>
InChI=1S/C23H20N6O4/c1-3-16-6-4-7-17(12-16)27-22-18-13-20(32-2)21(14-19(18)25-15-26-22)33-11-5-9-28-10-8-24-23(28)29(30)31/h1,4,6-8,10,12-15H,5,9,11H2,2H3,(H,25,26,27)

> <Ligand InChI Key>
LJZWDPMWGXKBNV-UHFFFAOYSA-N

> <BindingDB MonomerID>
50040436

> <BindingDB Ligand Name>
CHEMBL3360607

> <Target Name Assigned by Curator or DataSource>
Epidermal growth factor receptor

> <Target Source Organism According to Curator or DataSource>
Homo sapiens

> <Ki (nM)>


> <Kd (nM)>


> <EC50 (nM)>


> <kon (M-1-s-1)>


> <koff (s-1)>


> <pH>


> <Temp C>


> <Curation/DataSource>
ChEMBL

> <Article DOI>
10.1016/j.bmc.2014.10.038

> <PubChem AID>


> <Patent Number>


> <Authors>
Cheng, W; Yuan, Y; Qiu, N; Peng, P; Sheng, R; Hu, Y

> <Institution>
TBA

> <Link to Ligand in BindingDB>
http://www.bindingdb.org/bind/chemsearch/marvin/MolStructure.jsp?monomerid=50040436

> <Link to Ligand-Target Pair in BindingDB>
http://www.bindingdb.org/jsp/dbsearch/PrimarySearch_ki.jsp?energyterm=kJ/mole&tag=r21&monomerid=50040436&enzyme=Epidermal+growth+factor+receptor&column=ki&startPg=0&Increment=50&submit=Search

> <Ligand HET ID in PDB>


> <PDB ID(s) for Ligand-Target Complex>


> <PubChem CID>
118724345

> <PubChem SID>
313067459

> <ChEBI ID of Ligand>


> <ChEMBL ID of Ligand>
CHEMBL3360607

> <DrugBank ID of Ligand>


> <IUPHAR_GRAC ID of Ligand>


> <KEGG ID of Ligand>


> <ZINC ID of Ligand>


> <Number of Protein Chains in Target (>
1

> <BindingDB Target Chain Sequence>
MRPSGTAGAALLALLAALCPASRALEEKKVCQGTSNKLTQLGTFEDHFLSLQRMFNNCEVVLGNLEITYVQRNYDLSFLKTIQEVAGYVLIALNTVERIPLENLQIIRGNMYYENSYALAVLSNYDANKTGLKELPMRNLQEILHGAVRFSNNPALCNVESIQWRDIVSSDFLSNMSMDFQNHLGSCQKCDPSCPNGSCWGAGEENCQKLTKIICAQQCSGRCRGKSPSDCCHNQCAAGCTGPRESDCLVCRKFRDEATCKDTCPPLMLYNPTTYQMDVNPEGKYSFGATCVKKCPRNYVVTDHGSCVRACGADSYEMEEDGVRKCKKCEGPCRKVCNGIGIGEFKDSLSINATNIKHFKNCTSISGDLHILPVAFRGDSFTHTPPLDPQELDILKTVKEITGFLLIQAWPENRTDLHAFENLEIIRGRTKQHGQFSLAVVSLNITSLGLRSLKEISDGDVIISGNKNLCYANTINWKKLFGTSGQKTKIISNRGENSCKATGQVCHALCSPEGCWGPEPRDCVSCRNVSRGRECVDKCNLLEGEPREFVENSECIQCHPECLPQAMNITCTGRGPDNCIQCAHYIDGPHCVKTCPAGVMGENNTLVWKYADAGHVCHLCHPNCTYGCTGPGLEGCPTNGPKIPSIATGMVGALLLLLVVALGIGLFMRRRHIVRKRTLRRLLQERELVEPLTPSGEAPNQALLRILKETEFKKIKVLGSGAFGTVYKGLWIPEGEKVKIPVAIKELREATSPKANKEILDEAYVMASVDNPHVCRLLGICLTSTVQLITQLMPFGCLLDYVREHKDNIGSQYLLNWCVQIAKGMNYLEDRRLVHRDLAARNVLVKTPQHVKITDFGLAKLLGAEEKEYHAEGGKVPIKWMALESILHRIYTHQSDVWSYGVTVWELMTFGSKPYDGIPASEISSILEKGERLPQPPICTIDVYMIMVKCWMIDADSRPKFRELIIEFSKMARDPQRYLVIQGDERMHLPSPTDSNFYRALMDEEDMDDVVDADEYLIPQQGFFSSPSTSRTPLLSSLSATSNNSTVACIDRNGLQSCPIKEDSFLQRYSSDPTGALTEDSIDDTFLPVPEYINQSVPKRPAGSVQNPVYHNQPLNPAPSRDPHYQDPHSTAVGNPEYLNTVQPTCVNSTFDSPAHWAQKGSHQISLDNPDYQQDFFPKEAKPNGIFKGSTAENAEYLRVAPQSSEFIGA

> <PDB ID(s) of Target Chain>
1IVO,1M14,1M17,1MOX,1XKK,1Z9I,2GS2,2GS6,2ITW,2ITX,2ITY,2J5E,2J5F,2J6M,2RF9,2RGP,3B2V,3BEL,3GOP,3POZ,3QWQ,3VJO,3W2O,3W2P,3W2Q,3W2R,3W2S,3W32,3W33,4G5J,4I23,4JQ7,4JQ8,4JR3,4JRV,4KRO,4LI5,4RJ4,4RJ5,4RJ6,4RJ7,4RJ8,4TKS,4UIP,4UV7,4WKQ,4WRG,4ZAU,5C8K,5C8M,5C8N,5CAL,5CAN,5CAO,5CAP,5CAQ,5CAS,5CAU,5CAV,5EDP,5EDQ,5EDR,5EM5,5EM6,5EM7,5EM8,5FED,5GNK,5HCX,5HCY,5HCZ,5HIB,5HIC,5UGB,5WB7,5WB8,5Y25,6S89,6S8A

> <UniProt (SwissProt) Recommended Name of Target Chain>
Epidermal growth factor receptor

> <UniProt (SwissProt) Entry Name of Target Chain>
EGFR_HUMAN

> <UniProt (SwissProt) Primary ID of Target Chain>
P00533

> <UniProt (SwissProt) Secondary ID(s) of Target Chain>
O00688,O00732,P06268,Q14225,Q68GS5,Q92795,Q9BZS2,Q9GZX1,Q9H2C9,Q9H3C9,Q9UMD7,Q9UMD8,Q9UMG5

> <UniProt (SwissProt) Alternative ID(s) of Target Chain>


> <UniProt (TrEMBL) Submitted Name of Target Chain>


> <UniProt (TrEMBL) Entry Name of Target Chain>


> <UniProt (TrEMBL) Primary ID of Target Chain>


> <UniProt (TrEMBL) Secondary ID(s) of Target Chain>


> <UniProt (TrEMBL) Alternative ID(s) of Target Chain>


> <training label>
9.18709

> <i_lp_mmshare_version>
54117

> <s_epik_input>
W2NIXTFbY0hdW2NIXWMoQyNbQ0hdKVtjSF1jMVtOSF1jMm5bY0hdbmMoYzIzKVtjSF1jKGMoW2NIXTMpT1tDSDNdKU9bQ0gyXVtDSDJdW0NIMl1uNFtjSF1bY0hdbmM0W04rXSg9TylbTy1d

> <s_epik_cmdline>
J2VwaWtfcHl0aG9uJywgJy1waHQnLCAnMC4xJywgJy1waCcsICc3LjQnLCAnLXRuJywgJzgnLCAnLW1hJywgJzIwMCcsICctaW1hZScsICc8aW5maWxlLm1hZT4nLCAnLW9tYWUnLCAnPG91dGZpbGUubWFlPic=

> <r_lp_tautomer_probability>
1

> <r_epik_Ionization_Penalty>
  0.0007

> <r_epik_Ionization_Penalty_Charging>
  0.0000

> <r_epik_Ionization_Penalty_Neutral>
  0.0007

> <r_epik_State_Penalty>
  0.0000

> <r_epik_Charging_Adjusted_Penalty>
7.22843821028503e-09

> <i_epik_Tot_Q>
0

> <i_epik_Tot_abs_Q>
2

> <i_f3d_flags>
0

> <s_lp_Force_Field>
OPLS_2005

> <r_lp_Energy>
31.621855

> <b_lp_Chiralities_Consistent>
1

> <s_lp_Variant>
/home/bortolaa/Project/GT/mario-master/ligands/set505ligs_train.sdf:255-1

> <s_i_glide_gridfile>
struct_1_site_1

> <i_i_glide_lignum>
283

> <i_i_glide_rotatable_bonds>
10

> <r_i_docking_score>
-8.16197193519517

> <r_i_glide_ligand_efficiency>
-0.247332482884702

> <r_i_glide_ligand_efficiency_sa>
-0.793327428851162

> <r_i_glide_ligand_efficiency_ln>
-1.81518029795845

> <r_i_glide_gscore>
-8.16197193519517

> <r_i_glide_lipo>
-3.28149617923488

> <r_i_glide_hbond>
-0.32

> <r_i_glide_metal>
0

> <r_i_glide_rewards>
-1.52730407713623

> <r_i_glide_evdw>
-49.2705764770508

> <r_i_glide_ecoul>
-8.27908706665039

> <r_i_glide_erotb>
0.810005774587103

> <r_i_glide_esite>
-0.137785569561068

> <r_i_glide_emodel>
-63.1550508885083

> <r_i_glide_energy>
-57.5496635437012

> <r_i_glide_einternal>
5.09725666046143

> <i_i_glide_confnum>
80

> <i_i_glide_posenum>
26

> <r_i_glide_eff_state_penalty>
0

> <IC50 (nM)>
0.65

> <PMID>
25468044

> <r_glide_shape_similarity>
0.77736222743988

> <s_m_subgroup_title>
505 training

> <s_m_subgroupid>
pocket_pv

> <b_m_subgroup_collapsed>
0

$$$$
4-Anilidoquinazoline
                    3D
 Schrodinger Suite 2021-2.
 40 42  0  0  1  0            999 V2000
   21.5176    0.6395   52.4961 C   0  0  0  0  0  0
   20.1605    0.5185   52.1430 C   0  0  0  0  0  0
   19.3424   -0.3847   52.8393 C   0  0  0  0  0  0
   19.9100   -1.2053   53.8405 C   0  0  0  0  0  0
   22.0751   -0.1697   53.5036 C   0  0  0  0  0  0
   21.2722   -1.1109   54.1815 C   0  0  0  0  0  0
   23.4378   -0.0967   53.8682 C   0  0  0  0  0  0
   23.0954   -1.7349   55.4107 C   0  0  0  0  0  0
   23.9370   -0.8958   54.8252 N   0  0  0  0  0  0
   21.8040   -1.8921   55.1392 N   0  0  0  0  0  0
   24.2901    0.8475   53.2783 N   0  0  0  0  0  0
   25.6859    0.9463   53.3425 C   0  0  0  0  0  0
   27.6630    2.3642   53.4240 C   0  0  0  0  0  0
   26.2693    2.2243   53.3716 C   0  0  0  0  0  0
   26.5222   -0.1892   53.3306 C   0  0  0  0  0  0
   27.9287   -0.0496   53.3897 C   0  0  0  0  0  0
   28.4867    1.2338   53.4429 C   0  0  0  0  0  0
   23.8223    1.6216   52.8382 H   0  0  0  0  0  0
   19.5802    1.2522   51.1387 O   0  0  0  0  0  0
   20.3966    1.6292   50.0454 C   0  0  0  0  0  0
   18.0197   -0.3994   52.4666 O   0  0  0  0  0  0
   17.1117   -1.1449   53.2456 C   0  0  0  0  0  0
   28.8388   -1.0780   53.4188 O   0  0  0  0  0  0
   28.3952   -2.4022   53.2158 C   0  0  0  0  0  0
   22.1358    1.3519   51.9723 H   0  0  0  0  0  0
   19.3043   -1.9139   54.3813 H   0  0  0  0  0  0
   23.5094   -2.3780   56.1726 H   0  0  0  0  0  0
   28.1004    3.3514   53.4568 H   0  0  0  0  0  0
   25.6535    3.1137   53.3667 H   0  0  0  0  0  0
   26.0690   -1.1658   53.2697 H   0  0  0  0  0  0
   29.5610    1.3563   53.4943 H   0  0  0  0  0  0
   19.7596    1.9309   49.2142 H   0  0  0  0  0  0
   21.0188    0.8001   49.7026 H   0  0  0  0  0  0
   21.0306    2.4794   50.3014 H   0  0  0  0  0  0
   16.0968   -0.9524   52.8963 H   0  0  0  0  0  0
   17.3049   -2.2144   53.1581 H   0  0  0  0  0  0
   17.1500   -0.8662   54.2985 H   0  0  0  0  0  0
   29.1840   -3.0936   53.5064 H   0  0  0  0  0  0
   27.5031   -2.6653   53.7745 H   0  0  0  0  0  0
   28.1719   -2.5840   52.1742 H   0  0  0  0  0  0
  1  2  1  0  0  0
  1  5  2  0  0  0
  1 25  1  0  0  0
  2  3  2  0  0  0
  2 19  1  0  0  0
  3  4  1  0  0  0
  3 21  1  0  0  0
  4  6  2  0  0  0
  4 26  1  0  0  0
  5  6  1  0  0  0
  5  7  1  0  0  0
  6 10  1  0  0  0
  7  9  2  0  0  0
  7 11  1  0  0  0
  8  9  1  0  0  0
  8 10  2  0  0  0
  8 27  1  0  0  0
 11 12  1  0  0  0
 11 18  1  0  0  0
 12 14  2  0  0  0
 12 15  1  0  0  0
 13 14  1  0  0  0
 13 17  2  0  0  0
 13 28  1  0  0  0
 14 29  1  0  0  0
 15 16  2  0  0  0
 15 30  1  0  0  0
 16 17  1  0  0  0
 16 23  1  0  0  0
 17 31  1  0  0  0
 19 20  1  0  0  0
 20 32  1  0  0  0
 20 33  1  0  0  0
 20 34  1  0  0  0
 21 22  1  0  0  0
 22 35  1  0  0  0
 22 36  1  0  0  0
 22 37  1  0  0  0
 23 24  1  0  0  0
 24 38  1  0  0  0
 24 39  1  0  0  0
 24 40  1  0  0  0
M  END
> <s_m_entry_id>
219

> <s_m_entry_name>
pocket_pv.30

> <s_m_Source_Path>
/home/bortolaa/Project/GT/mario-master/docking/set505protein_struct_1_site_1_set505ligs_train

> <s_m_Source_File>
pocket_pv.maegz

> <i_m_Source_File_Index>
30

> <From>
www.bindingDB.org

> <BindingDB Reactant_set_id>
6581

> <Ligand InChI>
InChI=1S/C17H17N3O3/c1-21-12-6-4-5-11(7-12)20-17-13-8-15(22-2)16(23-3)9-14(13)18-10-19-17/h4-10H,1-3H3,(H,18,19,20)

> <Ligand InChI Key>
FMZCWRYXPHDICO-UHFFFAOYSA-N

> <BindingDB MonomerID>
4394

> <BindingDB Ligand Name>
4-Anilidoquinazoline deriv. 9a::6,7-dimethoxy-N-(3-methoxyphenyl)quinazolin-4-amine::Methoxy Aniline 1

> <Target Name Assigned by Curator or DataSource>
Epidermal growth factor receptor

> <Target Source Organism According to Curator or DataSource>
Homo sapiens

> <Ki (nM)>


> <IC50 (nM)>
6300

> <Kd (nM)>


> <EC50 (nM)>


> <kon (M-1-s-1)>


> <koff (s-1)>


> <Curation/DataSource>
Curated from the literature by BindingDB

> <Article DOI>
10.1021/jm050101d

> <PubChem AID>


> <Patent Number>


> <Authors>
Gazit, A; Chen, J; App, H; McMahon, G; Hirth, P; Chen, I; Levitzki, A

> <Institution>
Hebrew University of Jerusalem

> <Link to Ligand in BindingDB>
http://www.bindingdb.org/bind/chemsearch/marvin/MolStructure.jsp?monomerid=4394

> <Link to Ligand-Target Pair in BindingDB>
http://www.bindingdb.org/jsp/dbsearch/PrimarySearch_ki.jsp?energyterm=kJ/mole&tag=r21&monomerid=4394&enzyme=Epidermal+growth+factor+receptor&column=ki&startPg=0&Increment=50&submit=Search

> <Ligand HET ID in PDB>


> <PDB ID(s) for Ligand-Target Complex>


> <PubChem CID>
2808988

> <PubChem SID>
8034063

> <ChEBI ID of Ligand>


> <ChEMBL ID of Ligand>


> <DrugBank ID of Ligand>


> <IUPHAR_GRAC ID of Ligand>


> <KEGG ID of Ligand>


> <ZINC ID of Ligand>
ZINC00116945

> <Number of Protein Chains in Target (>
1

> <BindingDB Target Chain Sequence>
MRPSGTAGAALLALLAALCPASRALEEKKVCQGTSNKLTQLGTFEDHFLSLQRMFNNCEVVLGNLEITYVQRNYDLSFLKTIQEVAGYVLIALNTVERIPLENLQIIRGNMYYENSYALAVLSNYDANKTGLKELPMRNLQEILHGAVRFSNNPALCNVESIQWRDIVSSDFLSNMSMDFQNHLGSCQKCDPSCPNGSCWGAGEENCQKLTKIICAQQCSGRCRGKSPSDCCHNQCAAGCTGPRESDCLVCRKFRDEATCKDTCPPLMLYNPTTYQMDVNPEGKYSFGATCVKKCPRNYVVTDHGSCVRACGADSYEMEEDGVRKCKKCEGPCRKVCNGIGIGEFKDSLSINATNIKHFKNCTSISGDLHILPVAFRGDSFTHTPPLDPQELDILKTVKEITGFLLIQAWPENRTDLHAFENLEIIRGRTKQHGQFSLAVVSLNITSLGLRSLKEISDGDVIISGNKNLCYANTINWKKLFGTSGQKTKIISNRGENSCKATGQVCHALCSPEGCWGPEPRDCVSCRNVSRGRECVDKCNLLEGEPREFVENSECIQCHPECLPQAMNITCTGRGPDNCIQCAHYIDGPHCVKTCPAGVMGENNTLVWKYADAGHVCHLCHPNCTYGCTGPGLEGCPTNGPKIPSIATGMVGALLLLLVVALGIGLFMRRRHIVRKRTLRRLLQERELVEPLTPSGEAPNQALLRILKETEFKKIKVLGSGAFGTVYKGLWIPEGEKVKIPVAIKELREATSPKANKEILDEAYVMASVDNPHVCRLLGICLTSTVQLITQLMPFGCLLDYVREHKDNIGSQYLLNWCVQIAKGMNYLEDRRLVHRDLAARNVLVKTPQHVKITDFGLAKLLGAEEKEYHAEGGKVPIKWMALESILHRIYTHQSDVWSYGVTVWELMTFGSKPYDGIPASEISSILEKGERLPQPPICTIDVYMIMVKCWMIDADSRPKFRELIIEFSKMARDPQRYLVIQGDERMHLPSPTDSNFYRALMDEEDMDDVVDADEYLIPQQGFFSSPSTSRTPLLSSLSATSNNSTVACIDRNGLQSCPIKEDSFLQRYSSDPTGALTEDSIDDTFLPVPEYINQSVPKRPAGSVQNPVYHNQPLNPAPSRDPHYQDPHSTAVGNPEYLNTVQPTCVNSTFDSPAHWAQKGSHQISLDNPDYQQDFFPKEAKPNGIFKGSTAENAEYLRVAPQSSEFIGA

> <PDB ID(s) of Target Chain>
1IVO,1M14,1M17,1MOX,1XKK,1Z9I,2GS2,2GS6,2ITW,2ITX,2ITY,2J5E,2J5F,2J6M,2RF9,2RGP,3B2V,3BEL,3GOP,3POZ,3QWQ,3VJO,3W2O,3W2P,3W2Q,3W2R,3W2S,3W32,3W33,4G5J,4I23,4JQ7,4JQ8,4JR3,4JRV,4KRO,4LI5,4RJ4,4RJ5,4RJ6,4RJ7,4RJ8,4TKS,4UIP,4UV7,4WKQ,4WRG,4ZAU,5C8K,5C8M,5C8N,5CAL,5CAN,5CAO,5CAP,5CAQ,5CAS,5CAU,5CAV,5EDP,5EDQ,5EDR,5EM5,5EM6,5EM7,5EM8,5FED,5GNK,5HCX,5HCY,5HCZ,5HIB,5HIC,5UGB,5WB7,5WB8,5Y25,6S89,6S8A

> <UniProt (SwissProt) Recommended Name of Target Chain>
Epidermal growth factor receptor

> <UniProt (SwissProt) Entry Name of Target Chain>
EGFR_HUMAN

> <UniProt (SwissProt) Primary ID of Target Chain>
P00533

> <UniProt (SwissProt) Secondary ID(s) of Target Chain>
O00688,O00732,P06268,Q14225,Q68GS5,Q92795,Q9BZS2,Q9GZX1,Q9H2C9,Q9H3C9,Q9UMD7,Q9UMD8,Q9UMG5

> <UniProt (SwissProt) Alternative ID(s) of Target Chain>


> <UniProt (TrEMBL) Submitted Name of Target Chain>


> <UniProt (TrEMBL) Entry Name of Target Chain>


> <UniProt (TrEMBL) Primary ID of Target Chain>


> <UniProt (TrEMBL) Secondary ID(s) of Target Chain>


> <UniProt (TrEMBL) Alternative ID(s) of Target Chain>


> <training label>
5.20066

> <i_lp_mmshare_version>
54117

> <s_epik_input>
W0NIM11PYyhbY0hdMSljKE9bQ0gzXSlbY0hdYyhjMTIpbltjSF1uYzJbTkhdYzNbY0hdW2NIXVtjSF1jKFtjSF0zKU9bQ0gzXQ==

> <s_epik_cmdline>
J2VwaWtfcHl0aG9uJywgJy1waHQnLCAnMC4xJywgJy1waCcsICc3LjQnLCAnLXRuJywgJzgnLCAnLW1hJywgJzIwMCcsICctaW1hZScsICc8aW5maWxlLm1hZT4nLCAnLW9tYWUnLCAnPG91dGZpbGUubWFlPic=

> <r_lp_tautomer_probability>
1

> <r_epik_Ionization_Penalty>
  0.0006

> <r_epik_Ionization_Penalty_Charging>
  0.0000

> <r_epik_Ionization_Penalty_Neutral>
  0.0006

> <r_epik_State_Penalty>
  0.0000

> <r_epik_Charging_Adjusted_Penalty>
0

> <i_epik_Tot_Q>
0

> <i_epik_Tot_abs_Q>
0

> <i_f3d_flags>
0

> <s_lp_Force_Field>
OPLS_2005

> <r_lp_Energy>
24.500115

> <b_lp_Chiralities_Consistent>
1

> <s_lp_Variant>
4-Anilidoquinazoline-1

> <s_i_glide_gridfile>
struct_1_site_1

> <i_i_glide_lignum>
32

> <i_i_glide_rotatable_bonds>
5

> <r_i_docking_score>
-8.15562175501376

> <r_i_glide_ligand_efficiency>
-0.35459225021799

> <r_i_glide_ligand_efficiency_sa>
-1.00841319065225

> <r_i_glide_ligand_efficiency_ln>
-1.9721032914518

> <r_i_glide_gscore>
-8.15562175501376

> <r_i_glide_lipo>
-2.9065785526722

> <r_i_glide_hbond>
-0.32

> <r_i_glide_metal>
0

> <r_i_glide_rewards>
-2.44667220810647

> <r_i_glide_evdw>
-39.0064430236816

> <r_i_glide_ecoul>
-6.09781789779663

> <r_i_glide_erotb>
0.382623841618481

> <r_i_glide_esite>
0

> <r_i_glide_emodel>
-49.0205988455377

> <r_i_glide_energy>
-45.1042609214783

> <r_i_glide_einternal>
1.84835577011108

> <i_i_glide_confnum>
8

> <i_i_glide_posenum>
225

> <r_i_glide_eff_state_penalty>
0

> <PMID>
8879541

> <Temp C>
22

> <r_glide_shape_similarity>
0.810202121734619

> <pH>
7.6

> <s_m_subgroup_title>
505 training

> <s_m_subgroupid>
pocket_pv

> <b_m_subgroup_collapsed>
0

$$$$
4-Anilidoquinazoline
                    3D
 Schrodinger Suite 2021-2.
 36 38  0  0  1  0            999 V2000
   21.5240    0.6432   52.4965 C   0  0  0  0  0  0
   20.1668    0.5234   52.1426 C   0  0  0  0  0  0
   19.3454   -0.3806   52.8362 C   0  0  0  0  0  0
   19.9098   -1.2017   53.8390 C   0  0  0  0  0  0
   22.0774   -0.1653   53.5026 C   0  0  0  0  0  0
   21.2706   -1.1053   54.1793 C   0  0  0  0  0  0
   23.4389   -0.1023   53.8708 C   0  0  0  0  0  0
   23.0836   -1.7323   55.4163 C   0  0  0  0  0  0
   23.9213   -0.8910   54.8400 N   0  0  0  0  0  0
   21.7953   -1.8896   55.1371 N   0  0  0  0  0  0
   24.3630    0.7652   53.2732 N   0  0  0  0  0  0
   25.7553    0.5926   53.2678 C   0  0  0  0  0  0
   26.3214   -0.6942   53.1130 C   0  0  0  0  0  0
   26.6144    1.6899   53.4298 C   0  0  0  0  0  0
   27.9992    1.4636   53.5014 C   0  0  0  0  0  0
   28.5476    0.1883   53.3801 C   0  0  0  0  0  0
   23.9984    1.6161   52.8748 H   0  0  0  0  0  0
   19.5873    1.2669   51.1406 O   0  0  0  0  0  0
   20.4085    1.6532   50.0524 C   0  0  0  0  0  0
   18.0215   -0.3931   52.4611 O   0  0  0  0  0  0
   17.1182   -1.1451   53.2387 C   0  0  0  0  0  0
   27.7104   -0.8961   53.1688 C   0  0  0  0  0  0
   28.4122   -2.4549   52.9752 Cl  0  0  0  0  0  0
   29.0847    2.7342   53.7770 Cl  0  0  0  0  0  0
   22.1494    1.3548   51.9828 H   0  0  0  0  0  0
   19.3055   -1.9092   54.3839 H   0  0  0  0  0  0
   23.4934   -2.3735   56.1801 H   0  0  0  0  0  0
   25.6833   -1.5514   52.9534 H   0  0  0  0  0  0
   26.2235    2.6923   53.5397 H   0  0  0  0  0  0
   29.6183    0.0493   53.4367 H   0  0  0  0  0  0
   19.7747    1.9966   49.2347 H   0  0  0  0  0  0
   21.0097    0.8213   49.6799 H   0  0  0  0  0  0
   21.0646    2.4773   50.3362 H   0  0  0  0  0  0
   16.1012   -0.9622   52.8934 H   0  0  0  0  0  0
   17.3182   -2.2138   53.1451 H   0  0  0  0  0  0
   17.1623   -0.8674   54.2924 H   0  0  0  0  0  0
  1  2  1  0  0  0
  1  5  2  0  0  0
  1 25  1  0  0  0
  2  3  2  0  0  0
  2 18  1  0  0  0
  3  4  1  0  0  0
  3 20  1  0  0  0
  4  6  2  0  0  0
  4 26  1  0  0  0
  5  6  1  0  0  0
  5  7  1  0  0  0
  6 10  1  0  0  0
  7  9  2  0  0  0
  7 11  1  0  0  0
  8  9  1  0  0  0
  8 10  2  0  0  0
  8 27  1  0  0  0
 11 12  1  0  0  0
 11 17  1  0  0  0
 12 13  2  0  0  0
 12 14  1  0  0  0
 13 22  1  0  0  0
 13 28  1  0  0  0
 14 15  2  0  0  0
 14 29  1  0  0  0
 15 16  1  0  0  0
 15 24  1  0  0  0
 16 22  2  0  0  0
 16 30  1  0  0  0
 18 19  1  0  0  0
 19 31  1  0  0  0
 19 32  1  0  0  0
 19 33  1  0  0  0
 20 21  1  0  0  0
 21 34  1  0  0  0
 21 35  1  0  0  0
 21 36  1  0  0  0
 22 23  1  0  0  0
M  END
> <s_m_entry_id>
220

> <s_m_entry_name>
pocket_pv.31

> <s_m_Source_Path>
/home/bortolaa/Project/GT/mario-master/docking/set505protein_struct_1_site_1_set505ligs_train

> <s_m_Source_File>
pocket_pv.maegz

> <i_m_Source_File_Index>
31

> <From>
www.bindingDB.org

> <BindingDB Reactant_set_id>
6582

> <Ligand InChI>
InChI=1S/C16H13Cl2N3O2/c1-22-14-6-12-13(7-15(14)23-2)19-8-20-16(12)21-11-4-9(17)3-10(18)5-11/h3-8H,1-2H3,(H,19,20,21)

> <Ligand InChI Key>
ODARZGIYUZVYJH-UHFFFAOYSA-N

> <BindingDB MonomerID>
4395

> <BindingDB Ligand Name>
4-Anilidoquinazoline deriv. 10a::N-(3,5-dichlorophenyl)-6,7-dimethoxyquinazolin-4-amine

> <Target Name Assigned by Curator or DataSource>
Epidermal growth factor receptor

> <Target Source Organism According to Curator or DataSource>
Homo sapiens

> <Ki (nM)>


> <IC50 (nM)>
4000

> <Kd (nM)>


> <EC50 (nM)>


> <kon (M-1-s-1)>


> <koff (s-1)>


> <Curation/DataSource>
Curated from the literature by BindingDB

> <Article DOI>
10.1021/jm050101d

> <PubChem AID>


> <Patent Number>


> <Authors>
Gazit, A; Chen, J; App, H; McMahon, G; Hirth, P; Chen, I; Levitzki, A

> <Institution>
Hebrew University of Jerusalem

> <Link to Ligand in BindingDB>
http://www.bindingdb.org/bind/chemsearch/marvin/MolStructure.jsp?monomerid=4395

> <Link to Ligand-Target Pair in BindingDB>
http://www.bindingdb.org/jsp/dbsearch/PrimarySearch_ki.jsp?energyterm=kJ/mole&tag=r21&monomerid=4395&enzyme=Epidermal+growth+factor+receptor&column=ki&startPg=0&Increment=50&submit=Search

> <Ligand HET ID in PDB>


> <PDB ID(s) for Ligand-Target Complex>


> <PubChem CID>
5328817

> <PubChem SID>
8034064

> <ChEBI ID of Ligand>


> <ChEMBL ID of Ligand>


> <DrugBank ID of Ligand>


> <IUPHAR_GRAC ID of Ligand>


> <KEGG ID of Ligand>


> <ZINC ID of Ligand>
ZINC05610420

> <Number of Protein Chains in Target (>
1

> <BindingDB Target Chain Sequence>
MRPSGTAGAALLALLAALCPASRALEEKKVCQGTSNKLTQLGTFEDHFLSLQRMFNNCEVVLGNLEITYVQRNYDLSFLKTIQEVAGYVLIALNTVERIPLENLQIIRGNMYYENSYALAVLSNYDANKTGLKELPMRNLQEILHGAVRFSNNPALCNVESIQWRDIVSSDFLSNMSMDFQNHLGSCQKCDPSCPNGSCWGAGEENCQKLTKIICAQQCSGRCRGKSPSDCCHNQCAAGCTGPRESDCLVCRKFRDEATCKDTCPPLMLYNPTTYQMDVNPEGKYSFGATCVKKCPRNYVVTDHGSCVRACGADSYEMEEDGVRKCKKCEGPCRKVCNGIGIGEFKDSLSINATNIKHFKNCTSISGDLHILPVAFRGDSFTHTPPLDPQELDILKTVKEITGFLLIQAWPENRTDLHAFENLEIIRGRTKQHGQFSLAVVSLNITSLGLRSLKEISDGDVIISGNKNLCYANTINWKKLFGTSGQKTKIISNRGENSCKATGQVCHALCSPEGCWGPEPRDCVSCRNVSRGRECVDKCNLLEGEPREFVENSECIQCHPECLPQAMNITCTGRGPDNCIQCAHYIDGPHCVKTCPAGVMGENNTLVWKYADAGHVCHLCHPNCTYGCTGPGLEGCPTNGPKIPSIATGMVGALLLLLVVALGIGLFMRRRHIVRKRTLRRLLQERELVEPLTPSGEAPNQALLRILKETEFKKIKVLGSGAFGTVYKGLWIPEGEKVKIPVAIKELREATSPKANKEILDEAYVMASVDNPHVCRLLGICLTSTVQLITQLMPFGCLLDYVREHKDNIGSQYLLNWCVQIAKGMNYLEDRRLVHRDLAARNVLVKTPQHVKITDFGLAKLLGAEEKEYHAEGGKVPIKWMALESILHRIYTHQSDVWSYGVTVWELMTFGSKPYDGIPASEISSILEKGERLPQPPICTIDVYMIMVKCWMIDADSRPKFRELIIEFSKMARDPQRYLVIQGDERMHLPSPTDSNFYRALMDEEDMDDVVDADEYLIPQQGFFSSPSTSRTPLLSSLSATSNNSTVACIDRNGLQSCPIKEDSFLQRYSSDPTGALTEDSIDDTFLPVPEYINQSVPKRPAGSVQNPVYHNQPLNPAPSRDPHYQDPHSTAVGNPEYLNTVQPTCVNSTFDSPAHWAQKGSHQISLDNPDYQQDFFPKEAKPNGIFKGSTAENAEYLRVAPQSSEFIGA

> <PDB ID(s) of Target Chain>
1IVO,1M14,1M17,1MOX,1XKK,1Z9I,2GS2,2GS6,2ITW,2ITX,2ITY,2J5E,2J5F,2J6M,2RF9,2RGP,3B2V,3BEL,3GOP,3POZ,3QWQ,3VJO,3W2O,3W2P,3W2Q,3W2R,3W2S,3W32,3W33,4G5J,4I23,4JQ7,4JQ8,4JR3,4JRV,4KRO,4LI5,4RJ4,4RJ5,4RJ6,4RJ7,4RJ8,4TKS,4UIP,4UV7,4WKQ,4WRG,4ZAU,5C8K,5C8M,5C8N,5CAL,5CAN,5CAO,5CAP,5CAQ,5CAS,5CAU,5CAV,5EDP,5EDQ,5EDR,5EM5,5EM6,5EM7,5EM8,5FED,5GNK,5HCX,5HCY,5HCZ,5HIB,5HIC,5UGB,5WB7,5WB8,5Y25,6S89,6S8A

> <UniProt (SwissProt) Recommended Name of Target Chain>
Epidermal growth factor receptor

> <UniProt (SwissProt) Entry Name of Target Chain>
EGFR_HUMAN

> <UniProt (SwissProt) Primary ID of Target Chain>
P00533

> <UniProt (SwissProt) Secondary ID(s) of Target Chain>
O00688,O00732,P06268,Q14225,Q68GS5,Q92795,Q9BZS2,Q9GZX1,Q9H2C9,Q9H3C9,Q9UMD7,Q9UMD8,Q9UMG5

> <UniProt (SwissProt) Alternative ID(s) of Target Chain>


> <UniProt (TrEMBL) Submitted Name of Target Chain>


> <UniProt (TrEMBL) Entry Name of Target Chain>


> <UniProt (TrEMBL) Primary ID of Target Chain>


> <UniProt (TrEMBL) Secondary ID(s) of Target Chain>


> <UniProt (TrEMBL) Alternative ID(s) of Target Chain>


> <training label>
5.39794

> <i_lp_mmshare_version>
54117

> <s_epik_input>
W0NIM11PYyhbY0hdMSljKE9bQ0gzXSlbY0hdYyhjMTIpbltjSF1uYzJbTkhdYzNbY0hdYyhDbClbY0hdYyhDbClbY0hdMw==

> <s_epik_cmdline>
J2VwaWtfcHl0aG9uJywgJy1waHQnLCAnMC4xJywgJy1waCcsICc3LjQnLCAnLXRuJywgJzgnLCAnLW1hJywgJzIwMCcsICctaW1hZScsICc8aW5maWxlLm1hZT4nLCAnLW9tYWUnLCAnPG91dGZpbGUubWFlPic=

> <r_lp_tautomer_probability>
1

> <r_epik_Ionization_Penalty>
  0.0006

> <r_epik_Ionization_Penalty_Charging>
  0.0000

> <r_epik_Ionization_Penalty_Neutral>
  0.0006

> <r_epik_State_Penalty>
  0.0000

> <r_epik_Charging_Adjusted_Penalty>
0

> <i_epik_Tot_Q>
0

> <i_epik_Tot_abs_Q>
0

> <i_f3d_flags>
0

> <s_lp_Force_Field>
OPLS_2005

> <r_lp_Energy>
18.947351

> <b_lp_Chiralities_Consistent>
1

> <s_lp_Variant>
4-Anilidoquinazoline-1

> <s_i_glide_gridfile>
struct_1_site_1

> <i_i_glide_lignum>
45

> <i_i_glide_rotatable_bonds>
4

> <r_i_docking_score>
-8.14997381031024

> <r_i_glide_ligand_efficiency>
-0.354346687404793

> <r_i_glide_ligand_efficiency_sa>
-1.00771484267705

> <r_i_glide_ligand_efficiency_ln>
-1.97073756720976

> <r_i_glide_gscore>
-8.14997381031024

> <r_i_glide_lipo>
-3.23097262083398

> <r_i_glide_hbond>
-0.32

> <r_i_glide_metal>
0

> <r_i_glide_rewards>
-2.17882300403378

> <r_i_glide_evdw>
-41.8303871154785

> <r_i_glide_ecoul>
-4.2630410194397

> <r_i_glide_erotb>
0.3107973232474

> <r_i_glide_esite>
0

> <r_i_glide_emodel>
-45.4577298067362

> <r_i_glide_energy>
-46.0934281349182

> <r_i_glide_einternal>
2.43824911117554

> <i_i_glide_confnum>
1

> <i_i_glide_posenum>
39

> <r_i_glide_eff_state_penalty>
0

> <PMID>
8879541

> <Temp C>
22

> <r_glide_shape_similarity>
0.780083656311035

> <pH>
7.6

> <s_m_subgroup_title>
505 training

> <s_m_subgroupid>
pocket_pv

> <b_m_subgroup_collapsed>
0

$$$$
BindingDB_50307771_mol_1
                    3D
 Schrodinger Suite 2021-2.
 50 52  0  0  1  0            999 V2000
   20.1456    0.5153   52.1183 C   0  0  0  0  0  0
   19.3187   -0.3860   52.8344 C   0  0  0  0  0  0
   19.8938   -1.2113   53.8428 C   0  0  0  0  0  0
   21.5189    0.6165   52.4632 C   0  0  0  0  0  0
   22.0749   -0.1790   53.4922 C   0  0  0  0  0  0
   21.2655   -1.1206   54.1818 C   0  0  0  0  0  0
   21.8042   -1.9024   55.1465 N   0  0  0  0  0  0
   23.1013   -1.7515   55.4170 C   0  0  0  0  0  0
   23.9458   -0.9070   54.8306 N   0  0  0  0  0  0
   23.4409   -0.1009   53.8686 C   0  0  0  0  0  0
   19.5586    1.2584   51.1020 O   0  0  0  0  0  0
   17.9812   -0.3983   52.4728 O   0  0  0  0  0  0
   17.0596   -1.1324   53.2655 C   0  0  0  0  0  0
   24.2884    0.8515   53.2718 N   0  0  0  0  0  0
   25.6858    0.9489   53.3407 C   0  0  0  0  0  0
   26.5130   -0.2002   53.3291 C   0  0  0  0  0  0
   27.9162   -0.0723   53.3830 C   0  0  0  0  0  0
   28.4942    1.2135   53.4606 C   0  0  0  0  0  0
   27.6780    2.3636   53.4312 C   0  0  0  0  0  0
   26.2764    2.2345   53.3697 C   0  0  0  0  0  0
   20.3702    1.6667   49.9946 C   0  0  0  0  0  0
   21.0801    3.0150   50.2882 C   0  0  0  0  0  0
   22.4805    3.1529   49.6180 C   0  0  0  0  0  0
   29.8362    1.3323   53.5840 F   0  0  0  0  0  0
   28.9136   -1.4894   53.3716 Cl  0  0  0  0  0  0
   23.5644    3.9043   50.4654 C   0  0  0  0  0  0
   23.3682    5.4317   50.6507 C   0  0  0  0  0  0
   24.2837    6.0767   51.4174 N   0  0  0  0  0  0
   22.4339    6.0078   50.0774 O   0  0  0  0  0  0
   24.2905    7.5011   51.3249 O   0  0  0  0  0  0
   19.2837   -1.9097   54.3963 H   0  0  0  0  0  0
   22.1597    1.2949   51.9282 H   0  0  0  0  0  0
   23.5166   -2.3960   56.1784 H   0  0  0  0  0  0
   16.0449   -0.9208   52.9329 H   0  0  0  0  0  0
   17.2268   -2.2048   53.1652 H   0  0  0  0  0  0
   17.1288   -0.8673   54.3194 H   0  0  0  0  0  0
   23.8193    1.6277   52.8303 H   0  0  0  0  0  0
   26.0804   -1.1894   53.2792 H   0  0  0  0  0  0
   28.1250    3.3469   53.4734 H   0  0  0  0  0  0
   25.6627    3.1256   53.3584 H   0  0  0  0  0  0
   19.7408    1.7690   49.1117 H   0  0  0  0  0  0
   21.0804    0.8733   49.7584 H   0  0  0  0  0  0
   21.2046    3.1191   51.3658 H   0  0  0  0  0  0
   20.4339    3.8510   50.0180 H   0  0  0  0  0  0
   22.3687    3.6303   48.6445 H   0  0  0  0  0  0
   22.8818    2.1603   49.4070 H   0  0  0  0  0  0
   24.5356    3.7644   49.9861 H   0  0  0  0  0  0
   23.6439    3.4428   51.4493 H   0  0  0  0  0  0
   25.1332    5.7319   51.8703 H   0  0  0  0  0  0
   24.8745    7.7763   52.0299 H   0  0  0  0  0  0
  1  2  2  0  0  0
  1  4  1  0  0  0
  1 11  1  0  0  0
  2  3  1  0  0  0
  2 12  1  0  0  0
  3  6  2  0  0  0
  3 31  1  0  0  0
  4  5  2  0  0  0
  4 32  1  0  0  0
  5  6  1  0  0  0
  5 10  1  0  0  0
  6  7  1  0  0  0
  7  8  2  0  0  0
  8  9  1  0  0  0
  8 33  1  0  0  0
  9 10  2  0  0  0
 10 14  1  0  0  0
 11 21  1  0  0  0
 12 13  1  0  0  0
 13 34  1  0  0  0
 13 35  1  0  0  0
 13 36  1  0  0  0
 14 15  1  0  0  0
 14 37  1  0  0  0
 15 16  2  0  0  0
 15 20  1  0  0  0
 16 17  1  0  0  0
 16 38  1  0  0  0
 17 18  2  0  0  0
 17 25  1  0  0  0
 18 19  1  0  0  0
 18 24  1  0  0  0
 19 20  2  0  0  0
 19 39  1  0  0  0
 20 40  1  0  0  0
 21 22  1  0  0  0
 21 41  1  0  0  0
 21 42  1  0  0  0
 22 23  1  0  0  0
 22 43  1  0  0  0
 22 44  1  0  0  0
 23 26  1  0  0  0
 23 45  1  0  0  0
 23 46  1  0  0  0
 26 27  1  0  0  0
 26 47  1  0  0  0
 26 48  1  0  0  0
 27 28  1  0  0  0
 27 29  2  0  0  0
 28 30  1  0  0  0
 28 49  1  0  0  0
 30 50  1  0  0  0
M  END
> <s_m_entry_id>
221

> <s_m_entry_name>
pocket_pv.32

> <s_m_Source_Path>
/home/bortolaa/Project/GT/mario-master/docking/set505protein_struct_1_site_1_set505ligs_train

> <s_m_Source_File>
pocket_pv.maegz

> <i_m_Source_File_Index>
32

> <From>
www.bindingDB.org

> <BindingDB Reactant_set_id>
50552094

> <Ligand InChI>
InChI=1S/C20H20ClFN4O4/c1-29-17-10-16-13(9-18(17)30-7-3-2-4-19(27)26-28)20(24-11-23-16)25-12-5-6-15(22)14(21)8-12/h5-6,8-11,28H,2-4,7H2,1H3,(H,26,27)(H,23,24,25)

> <Ligand InChI Key>
UCSIYDCODBRGKW-UHFFFAOYSA-N

> <BindingDB MonomerID>
50307771

> <BindingDB Ligand Name>
5-(4-(3-Chloro-4-fluorophenylamino)-7-methoxyquinazolin-6-yloxy)-N-hydroxypentanamide::CHEMBL596736

> <Target Name Assigned by Curator or DataSource>
Epidermal growth factor receptor

> <Target Source Organism According to Curator or DataSource>
Homo sapiens

> <Ki (nM)>


> <Kd (nM)>


> <EC50 (nM)>


> <kon (M-1-s-1)>


> <koff (s-1)>


> <pH>


> <Temp C>


> <Curation/DataSource>
ChEMBL

> <Article DOI>
10.1021/jm901453q

> <PubChem AID>


> <Patent Number>


> <Authors>
Cai, X; Zhai, HX; Wang, J; Forrester, J; Qu, H; Yin, L; Lai, CJ; Bao, R; Qian, C

> <Institution>
Curis Inc

> <Link to Ligand in BindingDB>
http://www.bindingdb.org/bind/chemsearch/marvin/MolStructure.jsp?monomerid=50307771

> <Link to Ligand-Target Pair in BindingDB>
http://www.bindingdb.org/jsp/dbsearch/PrimarySearch_ki.jsp?energyterm=kJ/mole&tag=r21&monomerid=50307771&enzyme=Epidermal+growth+factor+receptor&column=ki&startPg=0&Increment=50&submit=Search

> <Ligand HET ID in PDB>


> <PDB ID(s) for Ligand-Target Complex>


> <PubChem CID>
24944850

> <PubChem SID>
104162132

> <ChEBI ID of Ligand>


> <ChEMBL ID of Ligand>
CHEMBL596736

> <DrugBank ID of Ligand>


> <IUPHAR_GRAC ID of Ligand>


> <KEGG ID of Ligand>


> <ZINC ID of Ligand>
ZINC45366482

> <Number of Protein Chains in Target (>
1

> <BindingDB Target Chain Sequence>
MRPSGTAGAALLALLAALCPASRALEEKKVCQGTSNKLTQLGTFEDHFLSLQRMFNNCEVVLGNLEITYVQRNYDLSFLKTIQEVAGYVLIALNTVERIPLENLQIIRGNMYYENSYALAVLSNYDANKTGLKELPMRNLQEILHGAVRFSNNPALCNVESIQWRDIVSSDFLSNMSMDFQNHLGSCQKCDPSCPNGSCWGAGEENCQKLTKIICAQQCSGRCRGKSPSDCCHNQCAAGCTGPRESDCLVCRKFRDEATCKDTCPPLMLYNPTTYQMDVNPEGKYSFGATCVKKCPRNYVVTDHGSCVRACGADSYEMEEDGVRKCKKCEGPCRKVCNGIGIGEFKDSLSINATNIKHFKNCTSISGDLHILPVAFRGDSFTHTPPLDPQELDILKTVKEITGFLLIQAWPENRTDLHAFENLEIIRGRTKQHGQFSLAVVSLNITSLGLRSLKEISDGDVIISGNKNLCYANTINWKKLFGTSGQKTKIISNRGENSCKATGQVCHALCSPEGCWGPEPRDCVSCRNVSRGRECVDKCNLLEGEPREFVENSECIQCHPECLPQAMNITCTGRGPDNCIQCAHYIDGPHCVKTCPAGVMGENNTLVWKYADAGHVCHLCHPNCTYGCTGPGLEGCPTNGPKIPSIATGMVGALLLLLVVALGIGLFMRRRHIVRKRTLRRLLQERELVEPLTPSGEAPNQALLRILKETEFKKIKVLGSGAFGTVYKGLWIPEGEKVKIPVAIKELREATSPKANKEILDEAYVMASVDNPHVCRLLGICLTSTVQLITQLMPFGCLLDYVREHKDNIGSQYLLNWCVQIAKGMNYLEDRRLVHRDLAARNVLVKTPQHVKITDFGLAKLLGAEEKEYHAEGGKVPIKWMALESILHRIYTHQSDVWSYGVTVWELMTFGSKPYDGIPASEISSILEKGERLPQPPICTIDVYMIMVKCWMIDADSRPKFRELIIEFSKMARDPQRYLVIQGDERMHLPSPTDSNFYRALMDEEDMDDVVDADEYLIPQQGFFSSPSTSRTPLLSSLSATSNNSTVACIDRNGLQSCPIKEDSFLQRYSSDPTGALTEDSIDDTFLPVPEYINQSVPKRPAGSVQNPVYHNQPLNPAPSRDPHYQDPHSTAVGNPEYLNTVQPTCVNSTFDSPAHWAQKGSHQISLDNPDYQQDFFPKEAKPNGIFKGSTAENAEYLRVAPQSSEFIGA

> <PDB ID(s) of Target Chain>
1IVO,1M14,1M17,1MOX,1XKK,1Z9I,2GS2,2GS6,2ITW,2ITX,2ITY,2J5E,2J5F,2J6M,2RF9,2RGP,3B2V,3BEL,3GOP,3POZ,3QWQ,3VJO,3W2O,3W2P,3W2Q,3W2R,3W2S,3W32,3W33,4G5J,4I23,4JQ7,4JQ8,4JR3,4JRV,4KRO,4LI5,4RJ4,4RJ5,4RJ6,4RJ7,4RJ8,4TKS,4UIP,4UV7,4WKQ,4WRG,4ZAU,5C8K,5C8M,5C8N,5CAL,5CAN,5CAO,5CAP,5CAQ,5CAS,5CAU,5CAV,5EDP,5EDQ,5EDR,5EM5,5EM6,5EM7,5EM8,5FED,5GNK,5HCX,5HCY,5HCZ,5HIB,5HIC,5UGB,5WB7,5WB8,5Y25,6S89,6S8A

> <UniProt (SwissProt) Recommended Name of Target Chain>
Epidermal growth factor receptor

> <UniProt (SwissProt) Entry Name of Target Chain>
EGFR_HUMAN

> <UniProt (SwissProt) Primary ID of Target Chain>
P00533

> <UniProt (SwissProt) Secondary ID(s) of Target Chain>
O00688,O00732,P06268,Q14225,Q68GS5,Q92795,Q9BZS2,Q9GZX1,Q9H2C9,Q9H3C9,Q9UMD7,Q9UMD8,Q9UMG5

> <UniProt (SwissProt) Alternative ID(s) of Target Chain>


> <UniProt (TrEMBL) Submitted Name of Target Chain>


> <UniProt (TrEMBL) Entry Name of Target Chain>


> <UniProt (TrEMBL) Primary ID of Target Chain>


> <UniProt (TrEMBL) Secondary ID(s) of Target Chain>


> <UniProt (TrEMBL) Alternative ID(s) of Target Chain>


> <training label>
8.02687

> <i_lp_mmshare_version>
54117

> <s_epik_input>
W09IXVtOSF1DKD1PKVtDSDJdW0NIMl1bQ0gyXVtDSDJdT2MoW2NIXTEpYyhPW0NIM10pW2NIXWMoYzEyKW5bY0hdbmMyW05IXWMzW2NIXWMoQ2wpYyhGKVtjSF1bY0hdMw==

> <s_epik_cmdline>
J2VwaWtfcHl0aG9uJywgJy1waHQnLCAnMC4xJywgJy1waCcsICc3LjQnLCAnLXRuJywgJzgnLCAnLW1hJywgJzIwMCcsICctaW1hZScsICc8aW5maWxlLm1hZT4nLCAnLW9tYWUnLCAnPG91dGZpbGUubWFlPic=

> <r_lp_tautomer_probability>
1

> <r_epik_Ionization_Penalty>
  0.0106

> <r_epik_Ionization_Penalty_Charging>
  0.0000

> <r_epik_Ionization_Penalty_Neutral>
  0.0106

> <r_epik_State_Penalty>
  0.0000

> <r_epik_Charging_Adjusted_Penalty>
0

> <i_epik_Tot_Q>
0

> <i_epik_Tot_abs_Q>
0

> <i_f3d_flags>
0

> <s_lp_Force_Field>
OPLS_2005

> <r_lp_Energy>
24.044163

> <b_lp_Chiralities_Consistent>
1

> <s_lp_Variant>
BindingDB_50307771_mol_1-1

> <s_i_glide_gridfile>
struct_1_site_1

> <i_i_glide_lignum>
236

> <i_i_glide_rotatable_bonds>
11

> <r_i_docking_score>
-8.13598007549381

> <r_i_glide_ligand_efficiency>
-0.271199335849794

> <r_i_glide_ligand_efficiency_sa>
-0.842679390990203

> <r_i_glide_ligand_efficiency_ln>
-1.84858332175531

> <r_i_glide_gscore>
-8.13598007549381

> <r_i_glide_lipo>
-2.97968684899185

> <r_i_glide_hbond>
-0.432

> <r_i_glide_metal>
0

> <r_i_glide_rewards>
-1.5901156043826

> <r_i_glide_evdw>
-45.7039756774902

> <r_i_glide_ecoul>
-10.7834577560425

> <r_i_glide_erotb>
0.948069536613615

> <r_i_glide_esite>
-0.179529711452095

> <r_i_glide_emodel>
-65.0227574552368

> <r_i_glide_energy>
-56.4874334335327

> <r_i_glide_einternal>
5.05607128143311

> <i_i_glide_confnum>
125

> <i_i_glide_posenum>
323

> <r_i_glide_eff_state_penalty>
0

> <IC50 (nM)>
9.4

> <PMID>
20143778

> <s_epik_Chemistry_Notes>
This compound has a N-S or N-O group and may undergo hydrolysis at high or low pH.

> <r_glide_shape_similarity>
0.797765374183655

> <s_m_subgroup_title>
505 training

> <s_m_subgroupid>
pocket_pv

> <b_m_subgroup_collapsed>
0

$$$$
BindingDB_50291111_mol_1
                    3D
 Schrodinger Suite 2021-2.
 42 44  0  0  1  0            999 V2000
   22.0834   -0.2262   53.4046 C   0  0  0  0  0  0
   23.4445   -0.0870   53.8008 C   0  0  0  0  0  0
   24.3086    0.9171   53.2886 N   0  0  0  0  0  0
   21.2758   -1.1063   54.1560 C   0  0  0  0  0  0
   21.5174    0.4459   52.3015 C   0  0  0  0  0  0
   23.9318   -0.8629   54.7884 N   0  0  0  0  0  0
   19.9063   -1.1954   53.8518 C   0  0  0  0  0  0
   25.7262    0.9751   53.3368 C   0  0  0  0  0  0
   20.1401    0.4035   52.0419 C   0  0  0  0  0  0
   19.3229   -0.4071   52.8363 C   0  0  0  0  0  0
   21.8050   -1.8484   55.1418 N   0  0  0  0  0  0
   23.0969   -1.6914   55.3930 C   0  0  0  0  0  0
   26.5097   -0.1974   53.3327 C   0  0  0  0  0  0
   27.9153   -0.1427   53.3717 C   0  0  0  0  0  0
   19.5351    1.1105   51.0298 O   0  0  0  0  0  0
   17.9842   -0.3957   52.5222 O   0  0  0  0  0  0
   23.6888    2.2319   53.1148 C   0  0  0  0  0  0
   26.4311    2.2091   53.3392 C   0  0  0  0  0  0
   27.8244    2.2679   53.3951 C   0  0  0  0  0  0
   28.5711    1.0921   53.4251 C   0  0  0  0  0  0
   28.7262   -1.4142   53.3255 C   0  0  0  0  0  0
   17.0948   -1.1365   53.3284 C   0  0  0  0  0  0
   20.3420    1.6094   49.9767 C   0  0  0  0  0  0
   22.1493    1.0218   51.6477 H   0  0  0  0  0  0
   19.3033   -1.8556   54.4554 H   0  0  0  0  0  0
   23.5135   -2.3091   56.1738 H   0  0  0  0  0  0
   26.0333   -1.1654   53.2826 H   0  0  0  0  0  0
   22.6349    2.2659   53.3736 H   0  0  0  0  0  0
   24.1019    2.9856   53.7750 H   0  0  0  0  0  0
   23.8042    2.5802   52.0880 H   0  0  0  0  0  0
   25.9690    3.1816   53.2897 H   0  0  0  0  0  0
   28.3222    3.2272   53.4060 H   0  0  0  0  0  0
   29.6511    1.1450   53.4587 H   0  0  0  0  0  0
   29.7693   -1.2169   53.0725 H   0  0  0  0  0  0
   28.3224   -2.0975   52.5774 H   0  0  0  0  0  0
   28.6955   -1.9194   54.2871 H   0  0  0  0  0  0
   16.0696   -0.9385   53.0161 H   0  0  0  0  0  0
   17.2725   -2.2073   53.2244 H   0  0  0  0  0  0
   17.1756   -0.8659   54.3815 H   0  0  0  0  0  0
   19.6999    1.9862   49.1804 H   0  0  0  0  0  0
   20.9677    2.4370   50.3140 H   0  0  0  0  0  0
   20.9728    0.8284   49.5483 H   0  0  0  0  0  0
  1  2  2  0  0  0
  1  4  1  0  0  0
  1  5  1  0  0  0
  2  3  1  0  0  0
  2  6  1  0  0  0
  3  8  1  0  0  0
  3 17  1  0  0  0
  4  7  1  0  0  0
  4 11  2  0  0  0
  5  9  2  0  0  0
  5 24  1  0  0  0
  6 12  2  0  0  0
  7 10  2  0  0  0
  7 25  1  0  0  0
  8 13  2  0  0  0
  8 18  1  0  0  0
  9 10  1  0  0  0
  9 15  1  0  0  0
 10 16  1  0  0  0
 11 12  1  0  0  0
 12 26  1  0  0  0
 13 14  1  0  0  0
 13 27  1  0  0  0
 14 20  2  0  0  0
 14 21  1  0  0  0
 15 23  1  0  0  0
 16 22  1  0  0  0
 17 28  1  0  0  0
 17 29  1  0  0  0
 17 30  1  0  0  0
 18 19  2  0  0  0
 18 31  1  0  0  0
 19 20  1  0  0  0
 19 32  1  0  0  0
 20 33  1  0  0  0
 21 34  1  0  0  0
 21 35  1  0  0  0
 21 36  1  0  0  0
 22 37  1  0  0  0
 22 38  1  0  0  0
 22 39  1  0  0  0
 23 40  1  0  0  0
 23 41  1  0  0  0
 23 42  1  0  0  0
M  END
> <s_m_entry_id>
222

> <s_m_entry_name>
pocket_pv.33

> <s_m_Source_Path>
/home/bortolaa/Project/GT/mario-master/docking/set505protein_struct_1_site_1_set505ligs_train

> <s_m_Source_File>
pocket_pv.maegz

> <i_m_Source_File_Index>
33

> <From>
www.bindingDB.org

> <BindingDB Reactant_set_id>
50486139

> <Ligand InChI>
InChI=1S/C18H19N3O2/c1-12-6-5-7-13(8-12)21(2)18-14-9-16(22-3)17(23-4)10-15(14)19-11-20-18/h5-11H,1-4H3

> <Ligand InChI Key>
VEFMMRYJRFCGMZ-UHFFFAOYSA-N

> <BindingDB MonomerID>
50291111

> <BindingDB Ligand Name>
(6,7-Dimethoxy-quinazolin-4-yl)-methyl-m-tolyl-amine; hydrochloride::CHEMBL553523

> <Target Name Assigned by Curator or DataSource>
Epidermal growth factor receptor

> <Target Source Organism According to Curator or DataSource>
Homo sapiens

> <Ki (nM)>


> <IC50 (nM)>
12000

> <Kd (nM)>


> <EC50 (nM)>


> <kon (M-1-s-1)>


> <koff (s-1)>


> <pH>


> <Temp C>


> <Curation/DataSource>
ChEMBL

> <Article DOI>
10.1016/S0960-894X(97)00035-8

> <PMID>


> <PubChem AID>


> <Patent Number>


> <Authors>
Myers, MR; Setzer, NN; Spada, AP; Persons, PE; Ly, CQ; Maguire, MP; Zulli, AL; Cheney, DL; Zilberstein, A; Johnson, SE; Franks, CF; Mitchell, KJ

> <Institution>
TBA

> <Link to Ligand in BindingDB>
http://www.bindingdb.org/bind/chemsearch/marvin/MolStructure.jsp?monomerid=50291111

> <Link to Ligand-Target Pair in BindingDB>
http://www.bindingdb.org/jsp/dbsearch/PrimarySearch_ki.jsp?energyterm=kJ/mole&tag=r21&monomerid=50291111&enzyme=Epidermal+growth+factor+receptor&column=ki&startPg=0&Increment=50&submit=Search

> <Ligand HET ID in PDB>


> <PDB ID(s) for Ligand-Target Complex>


> <PubChem CID>
44355618

> <PubChem SID>
104132663

> <ChEBI ID of Ligand>


> <ChEMBL ID of Ligand>
CHEMBL553523

> <DrugBank ID of Ligand>


> <IUPHAR_GRAC ID of Ligand>


> <KEGG ID of Ligand>


> <ZINC ID of Ligand>
ZINC00021996

> <Number of Protein Chains in Target (>
1

> <BindingDB Target Chain Sequence>
MRPSGTAGAALLALLAALCPASRALEEKKVCQGTSNKLTQLGTFEDHFLSLQRMFNNCEVVLGNLEITYVQRNYDLSFLKTIQEVAGYVLIALNTVERIPLENLQIIRGNMYYENSYALAVLSNYDANKTGLKELPMRNLQEILHGAVRFSNNPALCNVESIQWRDIVSSDFLSNMSMDFQNHLGSCQKCDPSCPNGSCWGAGEENCQKLTKIICAQQCSGRCRGKSPSDCCHNQCAAGCTGPRESDCLVCRKFRDEATCKDTCPPLMLYNPTTYQMDVNPEGKYSFGATCVKKCPRNYVVTDHGSCVRACGADSYEMEEDGVRKCKKCEGPCRKVCNGIGIGEFKDSLSINATNIKHFKNCTSISGDLHILPVAFRGDSFTHTPPLDPQELDILKTVKEITGFLLIQAWPENRTDLHAFENLEIIRGRTKQHGQFSLAVVSLNITSLGLRSLKEISDGDVIISGNKNLCYANTINWKKLFGTSGQKTKIISNRGENSCKATGQVCHALCSPEGCWGPEPRDCVSCRNVSRGRECVDKCNLLEGEPREFVENSECIQCHPECLPQAMNITCTGRGPDNCIQCAHYIDGPHCVKTCPAGVMGENNTLVWKYADAGHVCHLCHPNCTYGCTGPGLEGCPTNGPKIPSIATGMVGALLLLLVVALGIGLFMRRRHIVRKRTLRRLLQERELVEPLTPSGEAPNQALLRILKETEFKKIKVLGSGAFGTVYKGLWIPEGEKVKIPVAIKELREATSPKANKEILDEAYVMASVDNPHVCRLLGICLTSTVQLITQLMPFGCLLDYVREHKDNIGSQYLLNWCVQIAKGMNYLEDRRLVHRDLAARNVLVKTPQHVKITDFGLAKLLGAEEKEYHAEGGKVPIKWMALESILHRIYTHQSDVWSYGVTVWELMTFGSKPYDGIPASEISSILEKGERLPQPPICTIDVYMIMVKCWMIDADSRPKFRELIIEFSKMARDPQRYLVIQGDERMHLPSPTDSNFYRALMDEEDMDDVVDADEYLIPQQGFFSSPSTSRTPLLSSLSATSNNSTVACIDRNGLQSCPIKEDSFLQRYSSDPTGALTEDSIDDTFLPVPEYINQSVPKRPAGSVQNPVYHNQPLNPAPSRDPHYQDPHSTAVGNPEYLNTVQPTCVNSTFDSPAHWAQKGSHQISLDNPDYQQDFFPKEAKPNGIFKGSTAENAEYLRVAPQSSEFIGA

> <PDB ID(s) of Target Chain>
1IVO,1M14,1M17,1MOX,1XKK,1Z9I,2GS2,2GS6,2ITW,2ITX,2ITY,2J5E,2J5F,2J6M,2RF9,2RGP,3B2V,3BEL,3GOP,3POZ,3QWQ,3VJO,3W2O,3W2P,3W2Q,3W2R,3W2S,3W32,3W33,4G5J,4I23,4JQ7,4JQ8,4JR3,4JRV,4KRO,4LI5,4RJ4,4RJ5,4RJ6,4RJ7,4RJ8,4TKS,4UIP,4UV7,4WKQ,4WRG,4ZAU,5C8K,5C8M,5C8N,5CAL,5CAN,5CAO,5CAP,5CAQ,5CAS,5CAU,5CAV,5EDP,5EDQ,5EDR,5EM5,5EM6,5EM7,5EM8,5FED,5GNK,5HCX,5HCY,5HCZ,5HIB,5HIC,5UGB,5WB7,5WB8,5Y25,6S89,6S8A

> <UniProt (SwissProt) Recommended Name of Target Chain>
Epidermal growth factor receptor

> <UniProt (SwissProt) Entry Name of Target Chain>
EGFR_HUMAN

> <UniProt (SwissProt) Primary ID of Target Chain>
P00533

> <UniProt (SwissProt) Secondary ID(s) of Target Chain>
O00688,O00732,P06268,Q14225,Q68GS5,Q92795,Q9BZS2,Q9GZX1,Q9H2C9,Q9H3C9,Q9UMD7,Q9UMD8,Q9UMG5

> <UniProt (SwissProt) Alternative ID(s) of Target Chain>


> <UniProt (TrEMBL) Submitted Name of Target Chain>


> <UniProt (TrEMBL) Entry Name of Target Chain>


> <UniProt (TrEMBL) Primary ID of Target Chain>


> <UniProt (TrEMBL) Secondary ID(s) of Target Chain>


> <UniProt (TrEMBL) Alternative ID(s) of Target Chain>


> <training label>
4.92082

> <i_lp_mmshare_version>
54117

> <s_epik_input>
W0NIM11PYyhbY0hdMSljKE9bQ0gzXSlbY0hdYyhjMTIpbltjSF1uYzJOKFtDSDNdKWMzW2NIXWMoW0NIM10pW2NIXVtjSF1bY0hdMw==

> <s_epik_cmdline>
J2VwaWtfcHl0aG9uJywgJy1waHQnLCAnMC4xJywgJy1waCcsICc3LjQnLCAnLXRuJywgJzgnLCAnLW1hJywgJzIwMCcsICctaW1hZScsICc8aW5maWxlLm1hZT4nLCAnLW9tYWUnLCAnPG91dGZpbGUubWFlPic=

> <r_lp_tautomer_probability>
1

> <r_epik_Ionization_Penalty>
  0.0009

> <r_epik_Ionization_Penalty_Charging>
  0.0000

> <r_epik_Ionization_Penalty_Neutral>
  0.0009

> <r_epik_State_Penalty>
  0.0000

> <r_epik_Charging_Adjusted_Penalty>
0

> <i_epik_Tot_Q>
0

> <i_epik_Tot_abs_Q>
0

> <i_f3d_flags>
0

> <s_lp_Force_Field>
OPLS_2005

> <r_lp_Energy>
23.177414

> <b_lp_Chiralities_Consistent>
1

> <s_lp_Variant>
BindingDB_50291111_mol_1-1

> <s_i_glide_gridfile>
struct_1_site_1

> <i_i_glide_lignum>
19

> <i_i_glide_rotatable_bonds>
4

> <r_i_docking_score>
-8.11615820418615

> <r_i_glide_ligand_efficiency>
-0.352876443660267

> <r_i_glide_ligand_efficiency_sa>
-1.00353366504403

> <r_i_glide_ligand_efficiency_ln>
-1.96256064702599

> <r_i_glide_gscore>
-8.11615820418615

> <r_i_glide_lipo>
-2.96321488509946

> <r_i_glide_hbond>
-0.32

> <r_i_glide_metal>
0

> <r_i_glide_rewards>
-2.49980209090909

> <r_i_glide_evdw>
-36.952579498291

> <r_i_glide_ecoul>
-5.81621217727661

> <r_i_glide_erotb>
0.386919573328443

> <r_i_glide_esite>
0

> <r_i_glide_emodel>
-42.2635054972088

> <r_i_glide_energy>
-42.7687916755676

> <r_i_glide_einternal>
4.35587024688721

> <i_i_glide_confnum>
8

> <i_i_glide_posenum>
260

> <r_i_glide_eff_state_penalty>
0

> <r_glide_shape_similarity>
0.792972326278687

> <s_m_subgroup_title>
505 training

> <s_m_subgroupid>
pocket_pv

> <b_m_subgroup_collapsed>
0

$$$$
BindingDB_50039332_mol_1
                    3D
 Schrodinger Suite 2021-2.
 53 56  0  0  1  0            999 V2000
   21.8034   -1.9063   55.1525 N   0  0  0  0  0  0
   23.1008   -1.7497   55.4136 C   0  0  0  0  0  0
   23.9432   -0.9029   54.8265 N   0  0  0  0  0  0
   23.4351   -0.0968   53.8686 C   0  0  0  0  0  0
   22.0635   -0.1670   53.5057 C   0  0  0  0  0  0
   21.4925    0.6461   52.4934 C   0  0  0  0  0  0
   20.1241    0.5019   52.1617 C   0  0  0  0  0  0
   19.3122   -0.4302   52.8482 C   0  0  0  0  0  0
   19.8972   -1.2350   53.8610 C   0  0  0  0  0  0
   21.2649   -1.1249   54.1910 C   0  0  0  0  0  0
   24.2834    0.8502   53.2713 N   0  0  0  0  0  0
   19.5278    1.2022   51.1451 O   0  0  0  0  0  0
   19.5647    2.6212   51.2181 C   0  0  0  0  0  0
   18.5447    3.1676   50.1900 C   0  0  0  0  0  0
   18.6937    2.5949   48.7606 C   0  0  0  0  0  0
   20.9056    3.4713   47.7971 C   0  0  0  0  0  0
   22.1700    3.0507   47.6494 N   0  0  0  0  0  0
   22.1890    1.7539   48.1748 C   0  0  0  0  0  0
   20.9243    1.4184   48.5969 C   0  0  0  0  0  0
   20.1024    2.5307   48.3718 N   0  0  0  0  0  0
   20.5057    4.8215   47.3799 N   0  3  0  0  0  0
   19.4133    5.2612   47.7431 O   0  0  0  0  0  0
   21.2919    5.4508   46.6680 O   0  5  0  0  0  0
   17.9807   -0.4792   52.4718 O   0  0  0  0  0  0
   17.0690   -1.2041   53.2760 C   0  0  0  0  0  0
   25.6803    0.9538   53.3400 C   0  0  0  0  0  0
   26.5128   -0.1892   53.3348 C   0  0  0  0  0  0
   27.9152   -0.0506   53.3837 C   0  0  0  0  0  0
   28.5028    1.2317   53.4419 C   0  0  0  0  0  0
   27.6777    2.3745   53.4298 C   0  0  0  0  0  0
   26.2752    2.2367   53.3696 C   0  0  0  0  0  0
   28.7411   -1.2442   53.3697 C   0  0  0  0  0  0
   29.3748   -2.2904   53.3652 C   0  0  0  0  0  0
   23.5176   -2.3929   56.1749 H   0  0  0  0  0  0
   22.0869    1.3656   51.9458 H   0  0  0  0  0  0
   19.3068   -1.9557   54.4046 H   0  0  0  0  0  0
   23.8196    1.6309   52.8312 H   0  0  0  0  0  0
   19.2979    2.9464   52.2248 H   0  0  0  0  0  0
   20.5716    2.9923   51.0188 H   0  0  0  0  0  0
   17.5283    2.9822   50.5372 H   0  0  0  0  0  0
   18.6511    4.2547   50.1553 H   0  0  0  0  0  0
   18.2884    1.5789   48.7212 H   0  0  0  0  0  0
   18.1171    3.1677   48.0316 H   0  0  0  0  0  0
   23.0880    1.1586   48.1742 H   0  0  0  0  0  0
   20.5591    0.4976   49.0230 H   0  0  0  0  0  0
   16.0555   -1.0504   52.9074 H   0  0  0  0  0  0
   17.2736   -2.2763   53.2408 H   0  0  0  0  0  0
   17.0975   -0.8770   54.3181 H   0  0  0  0  0  0
   26.0742   -1.1772   53.2919 H   0  0  0  0  0  0
   29.5795    1.3462   53.4846 H   0  0  0  0  0  0
   28.1157    3.3617   53.4616 H   0  0  0  0  0  0
   25.6641    3.1272   53.3526 H   0  0  0  0  0  0
   29.8953   -3.2240   53.3721 H   0  0  0  0  0  0
  1  2  2  0  0  0
  1 10  1  0  0  0
  2  3  1  0  0  0
  2 34  1  0  0  0
  3  4  2  0  0  0
  4  5  1  0  0  0
  4 11  1  0  0  0
  5  6  2  0  0  0
  5 10  1  0  0  0
  6  7  1  0  0  0
  6 35  1  0  0  0
  7  8  2  0  0  0
  7 12  1  0  0  0
  8  9  1  0  0  0
  8 24  1  0  0  0
  9 10  2  0  0  0
  9 36  1  0  0  0
 11 26  1  0  0  0
 11 37  1  0  0  0
 12 13  1  0  0  0
 13 14  1  0  0  0
 13 38  1  0  0  0
 13 39  1  0  0  0
 14 15  1  0  0  0
 14 40  1  0  0  0
 14 41  1  0  0  0
 15 20  1  0  0  0
 15 42  1  0  0  0
 15 43  1  0  0  0
 16 17  2  0  0  0
 16 20  1  0  0  0
 16 21  1  0  0  0
 17 18  1  0  0  0
 18 19  2  0  0  0
 18 44  1  0  0  0
 19 20  1  0  0  0
 19 45  1  0  0  0
 21 22  2  0  0  0
 21 23  1  0  0  0
 24 25  1  0  0  0
 25 46  1  0  0  0
 25 47  1  0  0  0
 25 48  1  0  0  0
 26 27  2  0  0  0
 26 31  1  0  0  0
 27 28  1  0  0  0
 27 49  1  0  0  0
 28 29  2  0  0  0
 28 32  1  0  0  0
 29 30  1  0  0  0
 29 50  1  0  0  0
 30 31  2  0  0  0
 30 51  1  0  0  0
 31 52  1  0  0  0
 32 33  3  0  0  0
 33 53  1  0  0  0
M  CHG  2  21   1  23  -1
M  END
> <s_m_entry_id>
223

> <s_m_entry_name>
pocket_pv.34

> <s_m_Source_Path>
/home/bortolaa/Project/GT/mario-master/docking/set505protein_struct_1_site_1_set505ligs_train

> <s_m_Source_File>
pocket_pv.maegz

> <i_m_Source_File_Index>
34

> <From>
www.bindingDB.org

> <BindingDB Reactant_set_id>
50258413

> <Ligand InChI>
InChI=1S/C23H20N6O4/c1-3-16-6-4-7-17(12-16)27-22-18-13-21(20(32-2)14-19(18)25-15-26-22)33-11-5-9-28-10-8-24-23(28)29(30)31/h1,4,6-8,10,12-15H,5,9,11H2,2H3,(H,25,26,27)

> <Ligand InChI Key>
NAVSDCAWPLOBEL-UHFFFAOYSA-N

> <BindingDB MonomerID>
50039332

> <BindingDB Ligand Name>
CHEMBL3355879

> <Target Name Assigned by Curator or DataSource>
Epidermal growth factor receptor

> <Target Source Organism According to Curator or DataSource>
Homo sapiens

> <Ki (nM)>


> <Kd (nM)>


> <EC50 (nM)>


> <kon (M-1-s-1)>


> <koff (s-1)>


> <pH>


> <Temp C>


> <Curation/DataSource>
ChEMBL

> <Article DOI>
10.1016/j.ejmech.2014.11.010

> <PubChem AID>


> <Patent Number>


> <Authors>
Cheng, W; Zhu, S; Ma, X; Qiu, N; Peng, P; Sheng, R; Hu, Y

> <Institution>
Zhejiang University

> <Link to Ligand in BindingDB>
http://www.bindingdb.org/bind/chemsearch/marvin/MolStructure.jsp?monomerid=50039332

> <Link to Ligand-Target Pair in BindingDB>
http://www.bindingdb.org/jsp/dbsearch/PrimarySearch_ki.jsp?energyterm=kJ/mole&tag=r21&monomerid=50039332&enzyme=Epidermal+growth+factor+receptor&column=ki&startPg=0&Increment=50&submit=Search

> <Ligand HET ID in PDB>


> <PDB ID(s) for Ligand-Target Complex>


> <PubChem CID>
118721148

> <PubChem SID>
313067385

> <ChEBI ID of Ligand>


> <ChEMBL ID of Ligand>
CHEMBL3355879

> <DrugBank ID of Ligand>


> <IUPHAR_GRAC ID of Ligand>


> <KEGG ID of Ligand>


> <ZINC ID of Ligand>


> <Number of Protein Chains in Target (>
1

> <BindingDB Target Chain Sequence>
MRPSGTAGAALLALLAALCPASRALEEKKVCQGTSNKLTQLGTFEDHFLSLQRMFNNCEVVLGNLEITYVQRNYDLSFLKTIQEVAGYVLIALNTVERIPLENLQIIRGNMYYENSYALAVLSNYDANKTGLKELPMRNLQEILHGAVRFSNNPALCNVESIQWRDIVSSDFLSNMSMDFQNHLGSCQKCDPSCPNGSCWGAGEENCQKLTKIICAQQCSGRCRGKSPSDCCHNQCAAGCTGPRESDCLVCRKFRDEATCKDTCPPLMLYNPTTYQMDVNPEGKYSFGATCVKKCPRNYVVTDHGSCVRACGADSYEMEEDGVRKCKKCEGPCRKVCNGIGIGEFKDSLSINATNIKHFKNCTSISGDLHILPVAFRGDSFTHTPPLDPQELDILKTVKEITGFLLIQAWPENRTDLHAFENLEIIRGRTKQHGQFSLAVVSLNITSLGLRSLKEISDGDVIISGNKNLCYANTINWKKLFGTSGQKTKIISNRGENSCKATGQVCHALCSPEGCWGPEPRDCVSCRNVSRGRECVDKCNLLEGEPREFVENSECIQCHPECLPQAMNITCTGRGPDNCIQCAHYIDGPHCVKTCPAGVMGENNTLVWKYADAGHVCHLCHPNCTYGCTGPGLEGCPTNGPKIPSIATGMVGALLLLLVVALGIGLFMRRRHIVRKRTLRRLLQERELVEPLTPSGEAPNQALLRILKETEFKKIKVLGSGAFGTVYKGLWIPEGEKVKIPVAIKELREATSPKANKEILDEAYVMASVDNPHVCRLLGICLTSTVQLITQLMPFGCLLDYVREHKDNIGSQYLLNWCVQIAKGMNYLEDRRLVHRDLAARNVLVKTPQHVKITDFGLAKLLGAEEKEYHAEGGKVPIKWMALESILHRIYTHQSDVWSYGVTVWELMTFGSKPYDGIPASEISSILEKGERLPQPPICTIDVYMIMVKCWMIDADSRPKFRELIIEFSKMARDPQRYLVIQGDERMHLPSPTDSNFYRALMDEEDMDDVVDADEYLIPQQGFFSSPSTSRTPLLSSLSATSNNSTVACIDRNGLQSCPIKEDSFLQRYSSDPTGALTEDSIDDTFLPVPEYINQSVPKRPAGSVQNPVYHNQPLNPAPSRDPHYQDPHSTAVGNPEYLNTVQPTCVNSTFDSPAHWAQKGSHQISLDNPDYQQDFFPKEAKPNGIFKGSTAENAEYLRVAPQSSEFIGA

> <PDB ID(s) of Target Chain>
1IVO,1M14,1M17,1MOX,1XKK,1Z9I,2GS2,2GS6,2ITW,2ITX,2ITY,2J5E,2J5F,2J6M,2RF9,2RGP,3B2V,3BEL,3GOP,3POZ,3QWQ,3VJO,3W2O,3W2P,3W2Q,3W2R,3W2S,3W32,3W33,4G5J,4I23,4JQ7,4JQ8,4JR3,4JRV,4KRO,4LI5,4RJ4,4RJ5,4RJ6,4RJ7,4RJ8,4TKS,4UIP,4UV7,4WKQ,4WRG,4ZAU,5C8K,5C8M,5C8N,5CAL,5CAN,5CAO,5CAP,5CAQ,5CAS,5CAU,5CAV,5EDP,5EDQ,5EDR,5EM5,5EM6,5EM7,5EM8,5FED,5GNK,5HCX,5HCY,5HCZ,5HIB,5HIC,5UGB,5WB7,5WB8,5Y25,6S89,6S8A

> <UniProt (SwissProt) Recommended Name of Target Chain>
Epidermal growth factor receptor

> <UniProt (SwissProt) Entry Name of Target Chain>
EGFR_HUMAN

> <UniProt (SwissProt) Primary ID of Target Chain>
P00533

> <UniProt (SwissProt) Secondary ID(s) of Target Chain>
O00688,O00732,P06268,Q14225,Q68GS5,Q92795,Q9BZS2,Q9GZX1,Q9H2C9,Q9H3C9,Q9UMD7,Q9UMD8,Q9UMG5

> <UniProt (SwissProt) Alternative ID(s) of Target Chain>


> <UniProt (TrEMBL) Submitted Name of Target Chain>


> <UniProt (TrEMBL) Entry Name of Target Chain>


> <UniProt (TrEMBL) Primary ID of Target Chain>


> <UniProt (TrEMBL) Secondary ID(s) of Target Chain>


> <UniProt (TrEMBL) Alternative ID(s) of Target Chain>


> <training label>
8.95861

> <i_lp_mmshare_version>
54117

> <s_epik_input>
W2NIXTFbY0hdW2NIXWMoQyNbQ0hdKVtjSF1jMVtOSF1jMm5bY0hdbmMoYzIzKVtjSF1jKE9bQ0gzXSljKFtjSF0zKU9bQ0gyXVtDSDJdW0NIMl1uNFtjSF1bY0hdbmM0W04rXSg9TylbTy1d

> <s_epik_cmdline>
J2VwaWtfcHl0aG9uJywgJy1waHQnLCAnMC4xJywgJy1waCcsICc3LjQnLCAnLXRuJywgJzgnLCAnLW1hJywgJzIwMCcsICctaW1hZScsICc8aW5maWxlLm1hZT4nLCAnLW9tYWUnLCAnPG91dGZpbGUubWFlPic=

> <r_lp_tautomer_probability>
1

> <r_epik_Ionization_Penalty>
  0.0005

> <r_epik_Ionization_Penalty_Charging>
  0.0000

> <r_epik_Ionization_Penalty_Neutral>
  0.0005

> <r_epik_State_Penalty>
  0.0000

> <r_epik_Charging_Adjusted_Penalty>
7.22843821028503e-09

> <i_epik_Tot_Q>
0

> <i_epik_Tot_abs_Q>
2

> <i_f3d_flags>
0

> <s_lp_Force_Field>
OPLS_2005

> <r_lp_Energy>
31.707036

> <b_lp_Chiralities_Consistent>
1

> <s_lp_Variant>
BindingDB_50039332_mol_1-1

> <s_i_glide_gridfile>
struct_1_site_1

> <i_i_glide_lignum>
278

> <i_i_glide_rotatable_bonds>
10

> <r_i_docking_score>
-8.1082079292381

> <r_i_glide_ligand_efficiency>
-0.245703270582973

> <r_i_glide_ligand_efficiency_sa>
-0.788101674468604

> <r_i_glide_ligand_efficiency_ln>
-1.80322346140873

> <r_i_glide_gscore>
-8.1082079292381

> <r_i_glide_lipo>
-3.59173087576529

> <r_i_glide_hbond>
-0.32

> <r_i_glide_metal>
0

> <r_i_glide_rewards>
-1.68064100229651

> <r_i_glide_evdw>
-48.8536148071289

> <r_i_glide_ecoul>
-5.87551069259644

> <r_i_glide_erotb>
0.810005774587103

> <r_i_glide_esite>
-0.00183448151749232

> <r_i_glide_emodel>
-60.8381176944718

> <r_i_glide_energy>
-54.7291254997253

> <r_i_glide_einternal>
3.25193762779236

> <i_i_glide_confnum>
161

> <i_i_glide_posenum>
233

> <r_i_glide_eff_state_penalty>
0

> <IC50 (nM)>
1.1

> <PMID>
25462282

> <r_glide_shape_similarity>
0.788364052772522

> <s_m_subgroup_title>
505 training

> <s_m_subgroupid>
pocket_pv

> <b_m_subgroup_collapsed>
0

$$$$
BindingDB_50102093_mol_1
                    3D
 Schrodinger Suite 2021-2.
 39 41  0  0  1  0            999 V2000
   20.1628    0.5219   52.1413 C   0  0  0  0  0  0
   19.3434   -0.3821   52.8341 C   0  0  0  0  0  0
   19.9094   -1.2016   53.8375 C   0  0  0  0  0  0
   21.5186    0.6417   52.4958 C   0  0  0  0  0  0
   22.0753   -0.1687   53.5023 C   0  0  0  0  0  0
   21.2710   -1.1090   54.1788 C   0  0  0  0  0  0
   21.8012   -1.8913   55.1362 N   0  0  0  0  0  0
   23.0923   -1.7339   55.4075 C   0  0  0  0  0  0
   23.9365   -0.8969   54.8232 N   0  0  0  0  0  0
   23.4380   -0.0976   53.8667 C   0  0  0  0  0  0
   24.2901    0.8455   53.2756 N   0  0  0  0  0  0
   25.6841    0.9474   53.3443 C   0  0  0  0  0  0
   26.5167   -0.1889   53.3345 C   0  0  0  0  0  0
   27.9156   -0.0545   53.3775 C   0  0  0  0  0  0
   28.4916    1.2236   53.4377 C   0  0  0  0  0  0
   27.6682    2.3579   53.4240 C   0  0  0  0  0  0
   26.2726    2.2222   53.3723 C   0  0  0  0  0  0
   28.7970   -1.2833   53.3298 C   0  0  0  0  0  0
   19.5937    1.2661   51.1374 O   0  0  0  0  0  0
   18.0219   -0.4014   52.4559 O   0  0  0  0  0  0
   17.1092   -1.1428   53.2340 C   0  0  0  0  0  0
   20.3946    1.5474   50.0020 C   0  0  0  0  0  0
   19.3043   -1.9096   54.3814 H   0  0  0  0  0  0
   22.1363    1.3543   51.9723 H   0  0  0  0  0  0
   23.5035   -2.3744   56.1731 H   0  0  0  0  0  0
   23.8249    1.6209   52.8364 H   0  0  0  0  0  0
   26.0854   -1.1783   53.2789 H   0  0  0  0  0  0
   29.5659    1.3454   53.4709 H   0  0  0  0  0  0
   28.1028    3.3471   53.4539 H   0  0  0  0  0  0
   25.6601    3.1137   53.3625 H   0  0  0  0  0  0
   28.5558   -1.8920   52.4616 H   0  0  0  0  0  0
   28.6508   -1.9116   54.2040 H   0  0  0  0  0  0
   29.8517   -1.0203   53.2682 H   0  0  0  0  0  0
   16.0954   -0.9517   52.8843 H   0  0  0  0  0  0
   17.2946   -2.2133   53.1446 H   0  0  0  0  0  0
   17.1513   -0.8635   54.2869 H   0  0  0  0  0  0
   19.7545    1.8691   49.1797 H   0  0  0  0  0  0
   21.0997    2.3541   50.2065 H   0  0  0  0  0  0
   20.9460    0.6666   49.6669 H   0  0  0  0  0  0
  1  2  2  0  0  0
  1  4  1  0  0  0
  1 19  1  0  0  0
  2  3  1  0  0  0
  2 20  1  0  0  0
  3  6  2  0  0  0
  3 23  1  0  0  0
  4  5  2  0  0  0
  4 24  1  0  0  0
  5  6  1  0  0  0
  5 10  1  0  0  0
  6  7  1  0  0  0
  7  8  2  0  0  0
  8  9  1  0  0  0
  8 25  1  0  0  0
  9 10  2  0  0  0
 10 11  1  0  0  0
 11 12  1  0  0  0
 11 26  1  0  0  0
 12 13  2  0  0  0
 12 17  1  0  0  0
 13 14  1  0  0  0
 13 27  1  0  0  0
 14 15  2  0  0  0
 14 18  1  0  0  0
 15 16  1  0  0  0
 15 28  1  0  0  0
 16 17  2  0  0  0
 16 29  1  0  0  0
 17 30  1  0  0  0
 18 31  1  0  0  0
 18 32  1  0  0  0
 18 33  1  0  0  0
 19 22  1  0  0  0
 20 21  1  0  0  0
 21 34  1  0  0  0
 21 35  1  0  0  0
 21 36  1  0  0  0
 22 37  1  0  0  0
 22 38  1  0  0  0
 22 39  1  0  0  0
M  END
> <s_m_entry_id>
224

> <s_m_entry_name>
pocket_pv.35

> <s_m_Source_Path>
/home/bortolaa/Project/GT/mario-master/docking/set505protein_struct_1_site_1_set505ligs_train

> <s_m_Source_File>
pocket_pv.maegz

> <i_m_Source_File_Index>
35

> <From>
www.bindingDB.org

> <BindingDB Reactant_set_id>
50733048

> <Ligand InChI>
InChI=1S/C17H17N3O2/c1-11-5-4-6-12(7-11)20-17-13-8-15(21-2)16(22-3)9-14(13)18-10-19-17/h4-10H,1-3H3,(H,18,19,20)

> <Ligand InChI Key>
RSVNNWQHWIOIOC-UHFFFAOYSA-N

> <BindingDB MonomerID>
50102093

> <BindingDB Ligand Name>
(6,7-Dimethoxy-quinazolin-4-yl)-m-tolyl-amine::6,7-dimethoxy-N-m-tolylquinazolin-4-amine::CHEMBL56802

> <Target Name Assigned by Curator or DataSource>
Epidermal growth factor receptor

> <Target Source Organism According to Curator or DataSource>
Homo sapiens

> <Ki (nM)>


> <Kd (nM)>


> <EC50 (nM)>


> <kon (M-1-s-1)>


> <koff (s-1)>


> <pH>


> <Temp C>


> <Curation/DataSource>
ChEMBL

> <Article DOI>
10.1016/s0960-894x(01)00344-4

> <PubChem AID>


> <Patent Number>


> <Authors>
Barker, AJ; Gibson, KH; Grundy, W; Godfrey, AA; Barlow, JJ; Healy, MP; Woodburn, JR; Ashton, SE; Curry, BJ; Scarlett, L; Henthorn, L; Richards, L

> <Institution>
AstraZeneca

> <Link to Ligand in BindingDB>
http://www.bindingdb.org/bind/chemsearch/marvin/MolStructure.jsp?monomerid=50102093

> <Link to Ligand-Target Pair in BindingDB>
http://www.bindingdb.org/jsp/dbsearch/PrimarySearch_ki.jsp?energyterm=kJ/mole&tag=r21&monomerid=50102093&enzyme=Epidermal+growth+factor+receptor&column=ki&startPg=0&Increment=50&submit=Search

> <Ligand HET ID in PDB>


> <PDB ID(s) for Ligand-Target Complex>


> <PubChem CID>
2808977

> <PubChem SID>
103998649

> <ChEBI ID of Ligand>


> <ChEMBL ID of Ligand>
CHEMBL56802

> <DrugBank ID of Ligand>


> <IUPHAR_GRAC ID of Ligand>


> <KEGG ID of Ligand>


> <ZINC ID of Ligand>
ZINC00005857

> <Number of Protein Chains in Target (>
1

> <BindingDB Target Chain Sequence>
MRPSGTAGAALLALLAALCPASRALEEKKVCQGTSNKLTQLGTFEDHFLSLQRMFNNCEVVLGNLEITYVQRNYDLSFLKTIQEVAGYVLIALNTVERIPLENLQIIRGNMYYENSYALAVLSNYDANKTGLKELPMRNLQEILHGAVRFSNNPALCNVESIQWRDIVSSDFLSNMSMDFQNHLGSCQKCDPSCPNGSCWGAGEENCQKLTKIICAQQCSGRCRGKSPSDCCHNQCAAGCTGPRESDCLVCRKFRDEATCKDTCPPLMLYNPTTYQMDVNPEGKYSFGATCVKKCPRNYVVTDHGSCVRACGADSYEMEEDGVRKCKKCEGPCRKVCNGIGIGEFKDSLSINATNIKHFKNCTSISGDLHILPVAFRGDSFTHTPPLDPQELDILKTVKEITGFLLIQAWPENRTDLHAFENLEIIRGRTKQHGQFSLAVVSLNITSLGLRSLKEISDGDVIISGNKNLCYANTINWKKLFGTSGQKTKIISNRGENSCKATGQVCHALCSPEGCWGPEPRDCVSCRNVSRGRECVDKCNLLEGEPREFVENSECIQCHPECLPQAMNITCTGRGPDNCIQCAHYIDGPHCVKTCPAGVMGENNTLVWKYADAGHVCHLCHPNCTYGCTGPGLEGCPTNGPKIPSIATGMVGALLLLLVVALGIGLFMRRRHIVRKRTLRRLLQERELVEPLTPSGEAPNQALLRILKETEFKKIKVLGSGAFGTVYKGLWIPEGEKVKIPVAIKELREATSPKANKEILDEAYVMASVDNPHVCRLLGICLTSTVQLITQLMPFGCLLDYVREHKDNIGSQYLLNWCVQIAKGMNYLEDRRLVHRDLAARNVLVKTPQHVKITDFGLAKLLGAEEKEYHAEGGKVPIKWMALESILHRIYTHQSDVWSYGVTVWELMTFGSKPYDGIPASEISSILEKGERLPQPPICTIDVYMIMVKCWMIDADSRPKFRELIIEFSKMARDPQRYLVIQGDERMHLPSPTDSNFYRALMDEEDMDDVVDADEYLIPQQGFFSSPSTSRTPLLSSLSATSNNSTVACIDRNGLQSCPIKEDSFLQRYSSDPTGALTEDSIDDTFLPVPEYINQSVPKRPAGSVQNPVYHNQPLNPAPSRDPHYQDPHSTAVGNPEYLNTVQPTCVNSTFDSPAHWAQKGSHQISLDNPDYQQDFFPKEAKPNGIFKGSTAENAEYLRVAPQSSEFIGA

> <PDB ID(s) of Target Chain>
1IVO,1M14,1M17,1MOX,1XKK,1Z9I,2GS2,2GS6,2ITW,2ITX,2ITY,2J5E,2J5F,2J6M,2RF9,2RGP,3B2V,3BEL,3GOP,3POZ,3QWQ,3VJO,3W2O,3W2P,3W2Q,3W2R,3W2S,3W32,3W33,4G5J,4I23,4JQ7,4JQ8,4JR3,4JRV,4KRO,4LI5,4RJ4,4RJ5,4RJ6,4RJ7,4RJ8,4TKS,4UIP,4UV7,4WKQ,4WRG,4ZAU,5C8K,5C8M,5C8N,5CAL,5CAN,5CAO,5CAP,5CAQ,5CAS,5CAU,5CAV,5EDP,5EDQ,5EDR,5EM5,5EM6,5EM7,5EM8,5FED,5GNK,5HCX,5HCY,5HCZ,5HIB,5HIC,5UGB,5WB7,5WB8,5Y25,6S89,6S8A

> <UniProt (SwissProt) Recommended Name of Target Chain>
Epidermal growth factor receptor

> <UniProt (SwissProt) Entry Name of Target Chain>
EGFR_HUMAN

> <UniProt (SwissProt) Primary ID of Target Chain>
P00533

> <UniProt (SwissProt) Secondary ID(s) of Target Chain>
O00688,O00732,P06268,Q14225,Q68GS5,Q92795,Q9BZS2,Q9GZX1,Q9H2C9,Q9H3C9,Q9UMD7,Q9UMD8,Q9UMG5

> <UniProt (SwissProt) Alternative ID(s) of Target Chain>


> <UniProt (TrEMBL) Submitted Name of Target Chain>


> <UniProt (TrEMBL) Entry Name of Target Chain>


> <UniProt (TrEMBL) Primary ID of Target Chain>


> <UniProt (TrEMBL) Secondary ID(s) of Target Chain>


> <UniProt (TrEMBL) Alternative ID(s) of Target Chain>


> <training label>
8.30103

> <i_lp_mmshare_version>
54117

> <s_epik_input>
W0NIM11PYyhbY0hdMSljKE9bQ0gzXSlbY0hdYyhjMTIpbltjSF1uYzJbTkhdYzNbY0hdYyhbQ0gzXSlbY0hdW2NIXVtjSF0z

> <s_epik_cmdline>
J2VwaWtfcHl0aG9uJywgJy1waHQnLCAnMC4xJywgJy1waCcsICc3LjQnLCAnLXRuJywgJzgnLCAnLW1hJywgJzIwMCcsICctaW1hZScsICc8aW5maWxlLm1hZT4nLCAnLW9tYWUnLCAnPG91dGZpbGUubWFlPic=

> <r_lp_tautomer_probability>
1

> <r_epik_Ionization_Penalty>
  0.0006

> <r_epik_Ionization_Penalty_Charging>
  0.0000

> <r_epik_Ionization_Penalty_Neutral>
  0.0006

> <r_epik_State_Penalty>
  0.0000

> <r_epik_Charging_Adjusted_Penalty>
0

> <i_epik_Tot_Q>
0

> <i_epik_Tot_abs_Q>
0

> <i_f3d_flags>
0

> <s_lp_Force_Field>
OPLS_2005

> <r_lp_Energy>
20.494603

> <b_lp_Chiralities_Consistent>
1

> <s_lp_Variant>
BindingDB_50102093_mol_1-1

> <s_i_glide_gridfile>
struct_1_site_1

> <i_i_glide_lignum>
255

> <i_i_glide_rotatable_bonds>
4

> <r_i_docking_score>
-8.10744030108242

> <r_i_glide_ligand_efficiency>
-0.368520013685565

> <r_i_glide_ligand_efficiency_sa>
-1.03260757141667

> <r_i_glide_ligand_efficiency_ln>
-1.98175413565485

> <r_i_glide_gscore>
-8.10744030108242

> <r_i_glide_lipo>
-2.92790826791679

> <r_i_glide_hbond>
-0.32

> <r_i_glide_metal>
0

> <r_i_glide_rewards>
-2.55800018153443

> <r_i_glide_evdw>
-36.9815711975098

> <r_i_glide_ecoul>
-5.81419372558594

> <r_i_glide_erotb>
0.419675767082173

> <r_i_glide_esite>
0

> <r_i_glide_emodel>
-44.4567095480377

> <r_i_glide_energy>
-42.7957649230957

> <r_i_glide_einternal>
0.96681797504425

> <i_i_glide_confnum>
1

> <i_i_glide_posenum>
28

> <r_i_glide_eff_state_penalty>
0

> <IC50 (nM)>
5

> <PMID>
11459659

> <r_glide_shape_similarity>
0.798386335372925

> <s_m_subgroup_title>
505 training

> <s_m_subgroupid>
pocket_pv

> <b_m_subgroup_collapsed>
0

$$$$
BindingDB_50291114_mol_1
                    3D
 Schrodinger Suite 2021-2.
 39 41  0  0  1  0            999 V2000
   22.0821   -0.1740   53.4731 C   0  0  0  0  0  0
   23.4472   -0.0830   53.8574 C   0  0  0  0  0  0
   24.3933    0.8104   53.2931 N   0  0  0  0  0  0
   21.2763   -1.0970   54.1740 C   0  0  0  0  0  0
   21.5159    0.5693   52.4205 C   0  0  0  0  0  0
   23.9167   -0.8671   54.8435 N   0  0  0  0  0  0
   19.9176   -1.1983   53.8393 C   0  0  0  0  0  0
   20.1471    0.4858   52.1048 C   0  0  0  0  0  0
   19.3289   -0.4043   52.8422 C   0  0  0  0  0  0
   21.7979   -1.8738   55.1380 N   0  0  0  0  0  0
   25.7918    0.6009   53.2694 C   0  0  0  0  0  0
   23.0827   -1.7137   55.4163 C   0  0  0  0  0  0
   26.7557    1.6281   53.4379 C   0  0  0  0  0  0
   26.2612   -0.7145   53.0843 C   0  0  0  0  0  0
   28.5398   -0.0244   53.4375 C   0  0  0  0  0  0
   19.6184    1.2455   51.0906 O   0  0  0  0  0  0
   17.9819   -0.6250   52.6491 O   0  0  0  0  0  0
   27.6173   -1.0344   53.1872 C   0  0  0  0  0  0
   28.1232    1.3125   53.5261 C   0  0  0  0  0  0
   30.1801   -0.4655   53.6500 Cl  0  0  0  0  0  0
   24.0051    2.2108   53.2736 C   0  0  0  0  0  0
   17.2131    0.2564   51.8520 C   0  0  0  0  0  0
   20.4192    1.4585   49.9396 C   0  0  0  0  0  0
   22.1426    1.2148   51.8283 H   0  0  0  0  0  0
   19.2967   -1.8914   54.3872 H   0  0  0  0  0  0
   23.4937   -2.3539   56.1814 H   0  0  0  0  0  0
   26.4846    2.6678   53.5459 H   0  0  0  0  0  0
   25.5675   -1.5222   52.9036 H   0  0  0  0  0  0
   27.9410   -2.0613   53.0962 H   0  0  0  0  0  0
   28.8491    2.0945   53.6996 H   0  0  0  0  0  0
   22.9345    2.3414   53.3693 H   0  0  0  0  0  0
   24.4458    2.7624   54.1027 H   0  0  0  0  0  0
   24.3159    2.6832   52.3407 H   0  0  0  0  0  0
   17.3411    1.2977   52.1523 H   0  0  0  0  0  0
   17.4468    0.1405   50.7929 H   0  0  0  0  0  0
   16.1574    0.0148   51.9752 H   0  0  0  0  0  0
   19.7782    1.7450   49.1067 H   0  0  0  0  0  0
   21.1335    2.2667   50.0992 H   0  0  0  0  0  0
   20.9583    0.5568   49.6432 H   0  0  0  0  0  0
  1  2  2  0  0  0
  1  4  1  0  0  0
  1  5  1  0  0  0
  2  3  1  0  0  0
  2  6  1  0  0  0
  3 11  1  0  0  0
  3 21  1  0  0  0
  4  7  1  0  0  0
  4 10  2  0  0  0
  5  8  2  0  0  0
  5 24  1  0  0  0
  6 12  2  0  0  0
  7  9  2  0  0  0
  7 25  1  0  0  0
  8  9  1  0  0  0
  8 16  1  0  0  0
  9 17  1  0  0  0
 10 12  1  0  0  0
 11 13  2  0  0  0
 11 14  1  0  0  0
 12 26  1  0  0  0
 13 19  1  0  0  0
 13 27  1  0  0  0
 14 18  2  0  0  0
 14 28  1  0  0  0
 15 18  1  0  0  0
 15 19  2  0  0  0
 15 20  1  0  0  0
 16 23  1  0  0  0
 17 22  1  0  0  0
 18 29  1  0  0  0
 19 30  1  0  0  0
 21 31  1  0  0  0
 21 32  1  0  0  0
 21 33  1  0  0  0
 22 34  1  0  0  0
 22 35  1  0  0  0
 22 36  1  0  0  0
 23 37  1  0  0  0
 23 38  1  0  0  0
 23 39  1  0  0  0
M  END
> <s_m_entry_id>
225

> <s_m_entry_name>
pocket_pv.36

> <s_m_Source_Path>
/home/bortolaa/Project/GT/mario-master/docking/set505protein_struct_1_site_1_set505ligs_train

> <s_m_Source_File>
pocket_pv.maegz

> <i_m_Source_File_Index>
36

> <From>
www.bindingDB.org

> <BindingDB Reactant_set_id>
50486162

> <Ligand InChI>
InChI=1S/C17H16ClN3O2/c1-21(12-6-4-11(18)5-7-12)17-13-8-15(22-2)16(23-3)9-14(13)19-10-20-17/h4-10H,1-3H3

> <Ligand InChI Key>
PKOUZZXESDCMFW-UHFFFAOYSA-N

> <BindingDB MonomerID>
50291114

> <BindingDB Ligand Name>
(4-Chloro-phenyl)-(6,7-dimethoxy-quinazolin-4-yl)-methyl-amine; hydrochloride::CHEMBL543195

> <Target Name Assigned by Curator or DataSource>
Epidermal growth factor receptor

> <Target Source Organism According to Curator or DataSource>
Homo sapiens

> <Ki (nM)>


> <IC50 (nM)>
3000

> <Kd (nM)>


> <EC50 (nM)>


> <kon (M-1-s-1)>


> <koff (s-1)>


> <pH>


> <Temp C>


> <Curation/DataSource>
ChEMBL

> <Article DOI>
10.1016/S0960-894X(97)00035-8

> <PMID>


> <PubChem AID>


> <Patent Number>


> <Authors>
Myers, MR; Setzer, NN; Spada, AP; Persons, PE; Ly, CQ; Maguire, MP; Zulli, AL; Cheney, DL; Zilberstein, A; Johnson, SE; Franks, CF; Mitchell, KJ

> <Institution>
TBA

> <Link to Ligand in BindingDB>
http://www.bindingdb.org/bind/chemsearch/marvin/MolStructure.jsp?monomerid=50291114

> <Link to Ligand-Target Pair in BindingDB>
http://www.bindingdb.org/jsp/dbsearch/PrimarySearch_ki.jsp?energyterm=kJ/mole&tag=r21&monomerid=50291114&enzyme=Epidermal+growth+factor+receptor&column=ki&startPg=0&Increment=50&submit=Search

> <Ligand HET ID in PDB>


> <PDB ID(s) for Ligand-Target Complex>


> <PubChem CID>
18770818

> <PubChem SID>
104132666

> <ChEBI ID of Ligand>


> <ChEMBL ID of Ligand>
CHEMBL543195

> <DrugBank ID of Ligand>


> <IUPHAR_GRAC ID of Ligand>


> <KEGG ID of Ligand>


> <ZINC ID of Ligand>
ZINC27425876

> <Number of Protein Chains in Target (>
1

> <BindingDB Target Chain Sequence>
MRPSGTAGAALLALLAALCPASRALEEKKVCQGTSNKLTQLGTFEDHFLSLQRMFNNCEVVLGNLEITYVQRNYDLSFLKTIQEVAGYVLIALNTVERIPLENLQIIRGNMYYENSYALAVLSNYDANKTGLKELPMRNLQEILHGAVRFSNNPALCNVESIQWRDIVSSDFLSNMSMDFQNHLGSCQKCDPSCPNGSCWGAGEENCQKLTKIICAQQCSGRCRGKSPSDCCHNQCAAGCTGPRESDCLVCRKFRDEATCKDTCPPLMLYNPTTYQMDVNPEGKYSFGATCVKKCPRNYVVTDHGSCVRACGADSYEMEEDGVRKCKKCEGPCRKVCNGIGIGEFKDSLSINATNIKHFKNCTSISGDLHILPVAFRGDSFTHTPPLDPQELDILKTVKEITGFLLIQAWPENRTDLHAFENLEIIRGRTKQHGQFSLAVVSLNITSLGLRSLKEISDGDVIISGNKNLCYANTINWKKLFGTSGQKTKIISNRGENSCKATGQVCHALCSPEGCWGPEPRDCVSCRNVSRGRECVDKCNLLEGEPREFVENSECIQCHPECLPQAMNITCTGRGPDNCIQCAHYIDGPHCVKTCPAGVMGENNTLVWKYADAGHVCHLCHPNCTYGCTGPGLEGCPTNGPKIPSIATGMVGALLLLLVVALGIGLFMRRRHIVRKRTLRRLLQERELVEPLTPSGEAPNQALLRILKETEFKKIKVLGSGAFGTVYKGLWIPEGEKVKIPVAIKELREATSPKANKEILDEAYVMASVDNPHVCRLLGICLTSTVQLITQLMPFGCLLDYVREHKDNIGSQYLLNWCVQIAKGMNYLEDRRLVHRDLAARNVLVKTPQHVKITDFGLAKLLGAEEKEYHAEGGKVPIKWMALESILHRIYTHQSDVWSYGVTVWELMTFGSKPYDGIPASEISSILEKGERLPQPPICTIDVYMIMVKCWMIDADSRPKFRELIIEFSKMARDPQRYLVIQGDERMHLPSPTDSNFYRALMDEEDMDDVVDADEYLIPQQGFFSSPSTSRTPLLSSLSATSNNSTVACIDRNGLQSCPIKEDSFLQRYSSDPTGALTEDSIDDTFLPVPEYINQSVPKRPAGSVQNPVYHNQPLNPAPSRDPHYQDPHSTAVGNPEYLNTVQPTCVNSTFDSPAHWAQKGSHQISLDNPDYQQDFFPKEAKPNGIFKGSTAENAEYLRVAPQSSEFIGA

> <PDB ID(s) of Target Chain>
1IVO,1M14,1M17,1MOX,1XKK,1Z9I,2GS2,2GS6,2ITW,2ITX,2ITY,2J5E,2J5F,2J6M,2RF9,2RGP,3B2V,3BEL,3GOP,3POZ,3QWQ,3VJO,3W2O,3W2P,3W2Q,3W2R,3W2S,3W32,3W33,4G5J,4I23,4JQ7,4JQ8,4JR3,4JRV,4KRO,4LI5,4RJ4,4RJ5,4RJ6,4RJ7,4RJ8,4TKS,4UIP,4UV7,4WKQ,4WRG,4ZAU,5C8K,5C8M,5C8N,5CAL,5CAN,5CAO,5CAP,5CAQ,5CAS,5CAU,5CAV,5EDP,5EDQ,5EDR,5EM5,5EM6,5EM7,5EM8,5FED,5GNK,5HCX,5HCY,5HCZ,5HIB,5HIC,5UGB,5WB7,5WB8,5Y25,6S89,6S8A

> <UniProt (SwissProt) Recommended Name of Target Chain>
Epidermal growth factor receptor

> <UniProt (SwissProt) Entry Name of Target Chain>
EGFR_HUMAN

> <UniProt (SwissProt) Primary ID of Target Chain>
P00533

> <UniProt (SwissProt) Secondary ID(s) of Target Chain>
O00688,O00732,P06268,Q14225,Q68GS5,Q92795,Q9BZS2,Q9GZX1,Q9H2C9,Q9H3C9,Q9UMD7,Q9UMD8,Q9UMG5

> <UniProt (SwissProt) Alternative ID(s) of Target Chain>


> <UniProt (TrEMBL) Submitted Name of Target Chain>


> <UniProt (TrEMBL) Entry Name of Target Chain>


> <UniProt (TrEMBL) Primary ID of Target Chain>


> <UniProt (TrEMBL) Secondary ID(s) of Target Chain>


> <UniProt (TrEMBL) Alternative ID(s) of Target Chain>


> <training label>
5.52288

> <i_lp_mmshare_version>
54117

> <s_epik_input>
W0NIM11PYyhbY0hdMSljKE9bQ0gzXSlbY0hdYyhjMTIpbltjSF1uYzJOKFtDSDNdKWMzW2NIXVtjSF1jKENsKVtjSF1bY0hdMw==

> <s_epik_cmdline>
J2VwaWtfcHl0aG9uJywgJy1waHQnLCAnMC4xJywgJy1waCcsICc3LjQnLCAnLXRuJywgJzgnLCAnLW1hJywgJzIwMCcsICctaW1hZScsICc8aW5maWxlLm1hZT4nLCAnLW9tYWUnLCAnPG91dGZpbGUubWFlPic=

> <r_lp_tautomer_probability>
1

> <r_epik_Ionization_Penalty>
  0.0005

> <r_epik_Ionization_Penalty_Charging>
  0.0000

> <r_epik_Ionization_Penalty_Neutral>
  0.0005

> <r_epik_State_Penalty>
  0.0000

> <r_epik_Charging_Adjusted_Penalty>
0

> <i_epik_Tot_Q>
0

> <i_epik_Tot_abs_Q>
0

> <i_f3d_flags>
0

> <s_lp_Force_Field>
OPLS_2005

> <r_lp_Energy>
21.006611

> <b_lp_Chiralities_Consistent>
1

> <s_lp_Variant>
BindingDB_50291114_mol_1-1

> <s_i_glide_gridfile>
struct_1_site_1

> <i_i_glide_lignum>
50

> <i_i_glide_rotatable_bonds>
4

> <r_i_docking_score>
-8.10386536656771

> <r_i_glide_ligand_efficiency>
-0.352341972459466

> <r_i_glide_ligand_efficiency_sa>
-1.00201370004597

> <r_i_glide_ligand_efficiency_ln>
-1.95958812742456

> <r_i_glide_gscore>
-8.10386536656771

> <r_i_glide_lipo>
-3.23987421362148

> <r_i_glide_hbond>
-0.32

> <r_i_glide_metal>
0

> <r_i_glide_rewards>
-2.33063797763697

> <r_i_glide_evdw>
-37.845703125

> <r_i_glide_ecoul>
-4.44525241851807

> <r_i_glide_erotb>
0.345719843718447

> <r_i_glide_esite>
0

> <r_i_glide_emodel>
-36.8551619872892

> <r_i_glide_energy>
-42.2909555435181

> <r_i_glide_einternal>
7.45633411407471

> <i_i_glide_confnum>
5

> <i_i_glide_posenum>
141

> <r_i_glide_eff_state_penalty>
0

> <r_glide_shape_similarity>
0.780205547809601

> <s_m_subgroup_title>
505 training

> <s_m_subgroupid>
pocket_pv

> <b_m_subgroup_collapsed>
0

$$$$
/home/bortolaa/Project/GT/mario-master/ligands/set505ligs_train.sdf:216
                    3D
 Schrodinger Suite 2021-2.
 54 57  0  0  1  0            999 V2000
   20.2368    1.6253   49.9049 C   0  0  0  0  0  0
   19.5417    2.7134   49.2339 C   0  0  0  0  0  0
   18.1951    2.8378   49.2794 C   0  0  0  0  0  0
   17.4458    4.0880   48.8680 C   0  0  0  0  0  0
   21.2646    1.0948   49.4800 O   0  0  0  0  0  0
   19.6425    1.3000   51.0809 N   0  0  0  0  0  0
   21.8013   -1.9113   55.1444 N   0  0  0  0  0  0
   23.0990   -1.7532   55.4186 C   0  0  0  0  0  0
   23.9427   -0.9053   54.8349 N   0  0  0  0  0  0
   23.4428   -0.1011   53.8700 C   0  0  0  0  0  0
   22.0771   -0.1747   53.5021 C   0  0  0  0  0  0
   21.5294    0.6307   52.4828 C   0  0  0  0  0  0
   20.1732    0.4972   52.1229 C   0  0  0  0  0  0
   19.3214   -0.3845   52.8300 C   0  0  0  0  0  0
   19.8926   -1.2078   53.8394 C   0  0  0  0  0  0
   21.2651   -1.1220   54.1838 C   0  0  0  0  0  0
   17.9814   -0.3782   52.4662 O   0  0  0  0  0  0
   17.0542   -1.1171   53.2465 C   0  0  0  0  0  0
   24.2893    0.8534   53.2774 N   0  0  0  0  0  0
   25.6835    0.9545   53.3410 C   0  0  0  0  0  0
   26.5134   -0.1913   53.3337 C   0  0  0  0  0  0
   27.9164   -0.0499   53.3821 C   0  0  0  0  0  0
   28.5050    1.2318   53.4417 C   0  0  0  0  0  0
   27.6798    2.3762   53.4272 C   0  0  0  0  0  0
   26.2752    2.2400   53.3664 C   0  0  0  0  0  0
   28.7432   -1.2424   53.3669 C   0  0  0  0  0  0
   29.3733   -2.2885   53.3708 C   0  0  0  0  0  0
   16.8819    4.7334   50.0645 N   0  0  2  0  0  0
   15.7572    3.9680   50.6332 C   0  0  0  0  0  0
   16.0356    2.8924   51.6836 C   0  0  0  0  0  0
   15.4035    4.2033   52.0962 C   0  0  0  0  0  0
   20.1291    3.4830   48.7506 H   0  0  0  0  0  0
   17.5795    2.0490   49.6913 H   0  0  0  0  0  0
   18.1315    4.7779   48.3773 H   0  0  0  0  0  0
   16.6558    3.8466   48.1572 H   0  0  0  0  0  0
   18.7117    1.6553   51.2480 H   0  0  0  0  0  0
   23.5107   -2.4012   56.1777 H   0  0  0  0  0  0
   22.1445    1.3330   51.9423 H   0  0  0  0  0  0
   19.2820   -1.9070   54.3851 H   0  0  0  0  0  0
   16.0366   -0.9029   52.9183 H   0  0  0  0  0  0
   17.2269   -2.1879   53.1335 H   0  0  0  0  0  0
   17.1341   -0.8554   54.3020 H   0  0  0  0  0  0
   23.8223    1.6260   52.8278 H   0  0  0  0  0  0
   26.0736   -1.1802   53.2833 H   0  0  0  0  0  0
   29.5820    1.3435   53.4883 H   0  0  0  0  0  0
   28.1231    3.3613   53.4584 H   0  0  0  0  0  0
   25.6663    3.1327   53.3430 H   0  0  0  0  0  0
   29.8872   -3.2230   53.3816 H   0  0  0  0  0  0
   16.6136    5.7147   49.9093 H   0  0  0  0  0  0
   14.9001    3.7777   49.9863 H   0  0  0  0  0  0
   15.4040    2.0049   51.6739 H   0  0  0  0  0  0
   17.0638    2.7264   51.9942 H   0  0  0  0  0  0
   16.0252    4.8805   52.6780 H   0  0  0  0  0  0
   14.3469    4.2006   52.3620 H   0  0  0  0  0  0
  1  2  1  0  0  0
  1  5  2  0  0  0
  1  6  1  0  0  0
  2  3  2  0  0  0
  2 32  1  0  0  0
  3  4  1  0  0  0
  3 33  1  0  0  0
  4 28  1  0  0  0
  4 34  1  0  0  0
  4 35  1  0  0  0
  6 13  1  0  0  0
  6 36  1  0  0  0
  7  8  1  0  0  0
  7 16  2  0  0  0
  8  9  2  0  0  0
  8 37  1  0  0  0
  9 10  1  0  0  0
 10 11  2  0  0  0
 10 19  1  0  0  0
 11 12  1  0  0  0
 11 16  1  0  0  0
 12 13  2  0  0  0
 12 38  1  0  0  0
 13 14  1  0  0  0
 14 15  2  0  0  0
 14 17  1  0  0  0
 15 16  1  0  0  0
 15 39  1  0  0  0
 17 18  1  0  0  0
 18 40  1  0  0  0
 18 41  1  0  0  0
 18 42  1  0  0  0
 19 20  1  0  0  0
 19 43  1  0  0  0
 20 21  1  0  0  0
 20 25  2  0  0  0
 21 22  2  0  0  0
 21 44  1  0  0  0
 22 23  1  0  0  0
 22 26  1  0  0  0
 23 24  2  0  0  0
 23 45  1  0  0  0
 24 25  1  0  0  0
 24 46  1  0  0  0
 25 47  1  0  0  0
 26 27  3  0  0  0
 27 48  1  0  0  0
 28 29  1  0  0  0
 28 49  1  0  0  0
 29 30  1  0  0  0
 29 31  1  0  0  0
 29 50  1  0  0  0
 30 31  1  0  0  0
 30 51  1  0  0  0
 30 52  1  0  0  0
 31 53  1  0  0  0
 31 54  1  0  0  0
M  END
> <s_m_entry_id>
226

> <s_m_entry_name>
pocket_pv.37

> <s_m_Source_Path>
/home/bortolaa/Project/GT/mario-master/docking/set505protein_struct_1_site_1_set505ligs_train

> <s_m_Source_File>
pocket_pv.maegz

> <i_m_Source_File_Index>
37

> <From>
www.bindingDB.org

> <BindingDB Reactant_set_id>
50419132

> <Ligand InChI>
InChI=1S/C24H23N5O2/c1-3-16-6-4-7-18(12-16)28-24-19-13-21(22(31-2)14-20(19)26-15-27-24)29-23(30)8-5-11-25-17-9-10-17/h1,4-8,12-15,17,25H,9-11H2,2H3,(H,29,30)(H,26,27,28)/b8-5+

> <Ligand InChI Key>
JIKYFUDCMJVAKP-VMPITWQZSA-N

> <BindingDB MonomerID>
50123158

> <BindingDB Ligand Name>
CHEMBL3622677

> <Target Name Assigned by Curator or DataSource>
Epidermal growth factor receptor

> <Target Source Organism According to Curator or DataSource>
Homo sapiens

> <Ki (nM)>


> <Kd (nM)>


> <EC50 (nM)>


> <kon (M-1-s-1)>


> <koff (s-1)>


> <pH>


> <Temp C>


> <Curation/DataSource>
ChEMBL

> <Article DOI>
10.1016/j.ejmech.2015.08.026

> <PubChem AID>


> <Patent Number>


> <Authors>
Zhang, L; Yang, Y; Zhou, H; Zheng, Q; Li, Y; Zheng, S; Zhao, S; Chen, D; Fan, C

> <Institution>
Qilu Pharmaceutical Co, Ltd

> <Link to Ligand in BindingDB>
http://www.bindingdb.org/bind/chemsearch/marvin/MolStructure.jsp?monomerid=50123158

> <Link to Ligand-Target Pair in BindingDB>
http://www.bindingdb.org/jsp/dbsearch/PrimarySearch_ki.jsp?energyterm=kJ/mole&tag=r21&monomerid=50123158&enzyme=Epidermal+growth+factor+receptor&column=ki&startPg=0&Increment=50&submit=Search

> <Ligand HET ID in PDB>


> <PDB ID(s) for Ligand-Target Complex>


> <PubChem CID>
122191959

> <PubChem SID>
321901891

> <ChEBI ID of Ligand>


> <ChEMBL ID of Ligand>
CHEMBL3622677

> <DrugBank ID of Ligand>


> <IUPHAR_GRAC ID of Ligand>


> <KEGG ID of Ligand>


> <ZINC ID of Ligand>


> <Number of Protein Chains in Target (>
1

> <BindingDB Target Chain Sequence>
MRPSGTAGAALLALLAALCPASRALEEKKVCQGTSNKLTQLGTFEDHFLSLQRMFNNCEVVLGNLEITYVQRNYDLSFLKTIQEVAGYVLIALNTVERIPLENLQIIRGNMYYENSYALAVLSNYDANKTGLKELPMRNLQEILHGAVRFSNNPALCNVESIQWRDIVSSDFLSNMSMDFQNHLGSCQKCDPSCPNGSCWGAGEENCQKLTKIICAQQCSGRCRGKSPSDCCHNQCAAGCTGPRESDCLVCRKFRDEATCKDTCPPLMLYNPTTYQMDVNPEGKYSFGATCVKKCPRNYVVTDHGSCVRACGADSYEMEEDGVRKCKKCEGPCRKVCNGIGIGEFKDSLSINATNIKHFKNCTSISGDLHILPVAFRGDSFTHTPPLDPQELDILKTVKEITGFLLIQAWPENRTDLHAFENLEIIRGRTKQHGQFSLAVVSLNITSLGLRSLKEISDGDVIISGNKNLCYANTINWKKLFGTSGQKTKIISNRGENSCKATGQVCHALCSPEGCWGPEPRDCVSCRNVSRGRECVDKCNLLEGEPREFVENSECIQCHPECLPQAMNITCTGRGPDNCIQCAHYIDGPHCVKTCPAGVMGENNTLVWKYADAGHVCHLCHPNCTYGCTGPGLEGCPTNGPKIPSIATGMVGALLLLLVVALGIGLFMRRRHIVRKRTLRRLLQERELVEPLTPSGEAPNQALLRILKETEFKKIKVLGSGAFGTVYKGLWIPEGEKVKIPVAIKELREATSPKANKEILDEAYVMASVDNPHVCRLLGICLTSTVQLITQLMPFGCLLDYVREHKDNIGSQYLLNWCVQIAKGMNYLEDRRLVHRDLAARNVLVKTPQHVKITDFGLAKLLGAEEKEYHAEGGKVPIKWMALESILHRIYTHQSDVWSYGVTVWELMTFGSKPYDGIPASEISSILEKGERLPQPPICTIDVYMIMVKCWMIDADSRPKFRELIIEFSKMARDPQRYLVIQGDERMHLPSPTDSNFYRALMDEEDMDDVVDADEYLIPQQGFFSSPSTSRTPLLSSLSATSNNSTVACIDRNGLQSCPIKEDSFLQRYSSDPTGALTEDSIDDTFLPVPEYINQSVPKRPAGSVQNPVYHNQPLNPAPSRDPHYQDPHSTAVGNPEYLNTVQPTCVNSTFDSPAHWAQKGSHQISLDNPDYQQDFFPKEAKPNGIFKGSTAENAEYLRVAPQSSEFIGA

> <PDB ID(s) of Target Chain>
1IVO,1M14,1M17,1MOX,1XKK,1Z9I,2GS2,2GS6,2ITW,2ITX,2ITY,2J5E,2J5F,2J6M,2RF9,2RGP,3B2V,3BEL,3GOP,3POZ,3QWQ,3VJO,3W2O,3W2P,3W2Q,3W2R,3W2S,3W32,3W33,4G5J,4I23,4JQ7,4JQ8,4JR3,4JRV,4KRO,4LI5,4RJ4,4RJ5,4RJ6,4RJ7,4RJ8,4TKS,4UIP,4UV7,4WKQ,4WRG,4ZAU,5C8K,5C8M,5C8N,5CAL,5CAN,5CAO,5CAP,5CAQ,5CAS,5CAU,5CAV,5EDP,5EDQ,5EDR,5EM5,5EM6,5EM7,5EM8,5FED,5GNK,5HCX,5HCY,5HCZ,5HIB,5HIC,5UGB,5WB7,5WB8,5Y25,6S89,6S8A

> <UniProt (SwissProt) Recommended Name of Target Chain>
Epidermal growth factor receptor

> <UniProt (SwissProt) Entry Name of Target Chain>
EGFR_HUMAN

> <UniProt (SwissProt) Primary ID of Target Chain>
P00533

> <UniProt (SwissProt) Secondary ID(s) of Target Chain>
O00688,O00732,P06268,Q14225,Q68GS5,Q92795,Q9BZS2,Q9GZX1,Q9H2C9,Q9H3C9,Q9UMD7,Q9UMD8,Q9UMG5

> <UniProt (SwissProt) Alternative ID(s) of Target Chain>


> <UniProt (TrEMBL) Submitted Name of Target Chain>


> <UniProt (TrEMBL) Entry Name of Target Chain>


> <UniProt (TrEMBL) Primary ID of Target Chain>


> <UniProt (TrEMBL) Secondary ID(s) of Target Chain>


> <UniProt (TrEMBL) Alternative ID(s) of Target Chain>


> <training label>
8.10237

> <i_lp_mmshare_version>
54117

> <s_epik_input>
W0NIMl0xW0NIMl1bQ0hdMVtOSF1bQ0gyXVxbQ0hdPVtDSF1cQyg9TylbTkhdYyhbY0hdMiljKE9bQ0gzXSlbY0hdYyhjMjMpbltjSF1uYzNbTkhdYzRbY0hdYyhDI1tDSF0pW2NIXVtjSF1bY0hdNA==

> <s_epik_cmdline>
J2VwaWtfcHl0aG9uJywgJy1waHQnLCAnMC4xJywgJy1waCcsICc3LjQnLCAnLXRuJywgJzgnLCAnLW1hJywgJzIwMCcsICctaW1hZScsICc8aW5maWxlLm1hZT4nLCAnLW9tYWUnLCAnPG91dGZpbGUubWFlPic=

> <r_lp_tautomer_probability>
0.999978000241998

> <r_epik_Ionization_Penalty>
  0.2167

> <r_epik_Ionization_Penalty_Charging>
  0.0000

> <r_epik_Ionization_Penalty_Neutral>
  0.2167

> <r_epik_State_Penalty>
  0.2032

> <r_epik_Charging_Adjusted_Penalty>
0.203205070170935

> <i_epik_Tot_Q>
0

> <i_epik_Tot_abs_Q>
0

> <i_f3d_flags>
0

> <s_lp_Force_Field>
OPLS_2005

> <r_lp_Energy>
29.341728

> <b_lp_Chiralities_Consistent>
1

> <s_lp_Variant>
/home/bortolaa/Project/GT/mario-master/ligands/set505ligs_train.sdf:216-1

> <s_i_glide_gridfile>
struct_1_site_1

> <i_i_glide_lignum>
242

> <i_i_glide_rotatable_bonds>
10

> <r_i_docking_score>
-8.08531385541613

> <r_i_glide_ligand_efficiency>
-0.260816575981165

> <r_i_glide_ligand_efficiency_sa>
-0.819324144672353

> <r_i_glide_ligand_efficiency_ln>
-1.82348605950814

> <r_i_glide_gscore>
-8.28851385541613

> <r_i_glide_lipo>
-3.19506080553747

> <r_i_glide_hbond>
-0.456

> <r_i_glide_metal>
0

> <r_i_glide_rewards>
-1.88602316914937

> <r_i_glide_evdw>
-47.995719909668

> <r_i_glide_ecoul>
-8.49892997741699

> <r_i_glide_erotb>
0.923195611366657

> <r_i_glide_esite>
0

> <r_i_glide_emodel>
-62.1416317196882

> <r_i_glide_energy>
-56.494649887085

> <r_i_glide_einternal>
13.6957178115845

> <i_i_glide_confnum>
278

> <i_i_glide_posenum>
300

> <r_i_glide_eff_state_penalty>
0.2032

> <IC50 (nM)>
7.9

> <PMID>
26310890

> <r_glide_shape_similarity>
0.821199536323547

> <s_m_subgroup_title>
505 training

> <s_m_subgroupid>
pocket_pv

> <b_m_subgroup_collapsed>
0

$$$$
BindingDB_3534_mol_1
                    3D
 Schrodinger Suite 2021-2.
 39 41  0  0  1  0            999 V2000
   21.5227    0.6419   52.4977 C   0  0  0  0  0  0
   19.3451   -0.3763   52.8312 C   0  0  0  0  0  0
   19.9062   -1.1993   53.8362 C   0  0  0  0  0  0
   22.0742   -0.1705   53.5036 C   0  0  0  0  0  0
   21.2682   -1.1094   54.1789 C   0  0  0  0  0  0
   23.4355   -0.1010   53.8683 C   0  0  0  0  0  0
   23.0891   -1.7346   55.4083 C   0  0  0  0  0  0
   23.9358   -0.8991   54.8239 N   0  0  0  0  0  0
   21.7978   -1.8913   55.1367 N   0  0  0  0  0  0
   24.2833    0.8421   53.2762 N   0  0  0  0  0  0
   23.8173    1.6186   52.8394 H   0  0  0  0  0  0
   25.6735    0.9503   53.3390 C   0  0  0  0  0  0
   27.6169    2.4171   53.3837 C   0  0  0  0  0  0
   26.2309    2.2384   53.3583 C   0  0  0  0  0  0
   26.5190   -0.1721   53.3244 C   0  0  0  0  0  0
   28.4561    1.3063   53.3745 C   0  0  0  0  0  0
   20.1691    0.5253   52.1400 C   0  0  0  0  0  0
   19.6081    1.2876   51.1439 O   0  0  0  0  0  0
   20.3869    1.4984   49.9750 C   0  0  0  0  0  0
   18.0251   -0.3829   52.4475 O   0  0  0  0  0  0
   17.1029   -1.1141   53.2241 C   0  0  0  0  0  0
   27.9097    0.0176   53.3307 C   0  0  0  0  0  0
   28.8597   -1.1257   53.4252 C   0  0  0  0  0  0
   28.2904   -2.3212   53.3767 F   0  0  0  0  0  0
   29.4183   -0.8662   54.5745 F   0  0  0  0  0  0
   29.8524   -1.1044   52.5767 F   0  0  0  0  0  0
   22.1426    1.3570   51.9829 H   0  0  0  0  0  0
   19.2952   -1.9046   54.3772 H   0  0  0  0  0  0
   23.5005   -2.3804   56.1688 H   0  0  0  0  0  0
   28.0304    3.4150   53.4120 H   0  0  0  0  0  0
   25.5968    3.1144   53.3604 H   0  0  0  0  0  0
   26.1073   -1.1710   53.3031 H   0  0  0  0  0  0
   29.5288    1.4458   53.4096 H   0  0  0  0  0  0
   19.7720    1.9785   49.2189 H   0  0  0  0  0  0
   21.2470    2.1392   50.1451 H   0  0  0  0  0  0
   20.7304    0.5507   49.5630 H   0  0  0  0  0  0
   16.0943   -0.9184   52.8630 H   0  0  0  0  0  0
   17.2832   -2.1877   53.1374 H   0  0  0  0  0  0
   17.1402   -0.8218   54.2757 H   0  0  0  0  0  0
  1  4  2  0  0  0
  1 17  1  0  0  0
  1 27  1  0  0  0
  2  3  1  0  0  0
  2 17  2  0  0  0
  2 20  1  0  0  0
  3  5  2  0  0  0
  3 28  1  0  0  0
  4  5  1  0  0  0
  4  6  1  0  0  0
  5  9  1  0  0  0
  6  8  2  0  0  0
  6 10  1  0  0  0
  7  8  1  0  0  0
  7  9  2  0  0  0
  7 29  1  0  0  0
 10 11  1  0  0  0
 10 12  1  0  0  0
 12 14  2  0  0  0
 12 15  1  0  0  0
 13 14  1  0  0  0
 13 16  2  0  0  0
 13 30  1  0  0  0
 14 31  1  0  0  0
 15 22  2  0  0  0
 15 32  1  0  0  0
 16 22  1  0  0  0
 16 33  1  0  0  0
 17 18  1  0  0  0
 18 19  1  0  0  0
 19 34  1  0  0  0
 19 35  1  0  0  0
 19 36  1  0  0  0
 20 21  1  0  0  0
 21 37  1  0  0  0
 21 38  1  0  0  0
 21 39  1  0  0  0
 22 23  1  0  0  0
 23 24  1  0  0  0
 23 25  1  0  0  0
 23 26  1  0  0  0
M  END
> <s_m_entry_id>
227

> <s_m_entry_name>
pocket_pv.38

> <s_m_Source_Path>
/home/bortolaa/Project/GT/mario-master/docking/set505protein_struct_1_site_1_set505ligs_train

> <s_m_Source_File>
pocket_pv.maegz

> <i_m_Source_File_Index>
38

> <From>
www.bindingDB.org

> <BindingDB Reactant_set_id>
51049780

> <Ligand InChI>
InChI=1S/C17H14F3N3O2/c1-24-14-7-12-13(8-15(14)25-2)21-9-22-16(12)23-11-5-3-4-10(6-11)17(18,19)20/h3-9H,1-2H3,(H,21,22,23)

> <Ligand InChI Key>
KEQCEKUDWPXRRQ-UHFFFAOYSA-N

> <BindingDB MonomerID>
3534

> <BindingDB Ligand Name>
6,7-dimethoxy-N-[3-(trifluoromethyl)phenyl]quinazolin-4-amine::CHEMBL316064::PD153035 Analog 34

> <Target Name Assigned by Curator or DataSource>
Epidermal growth factor receptor

> <Target Source Organism According to Curator or DataSource>
Homo sapiens

> <Ki (nM)>


> <Kd (nM)>


> <EC50 (nM)>


> <kon (M-1-s-1)>


> <koff (s-1)>


> <pH>


> <Temp C>


> <Curation/DataSource>
ChEMBL

> <Article DOI>
10.1016/j.ejmech.2012.07.036

> <PubChem AID>


> <Patent Number>


> <Authors>
Lu, S; Zheng, W; Ji, L; Luo, Q; Hao, X; Li, X; Wang, F

> <Institution>
Chinese Academy of Sciences

> <Link to Ligand in BindingDB>
http://www.bindingdb.org/bind/chemsearch/marvin/MolStructure.jsp?monomerid=3534

> <Link to Ligand-Target Pair in BindingDB>
http://www.bindingdb.org/jsp/dbsearch/PrimarySearch_ki.jsp?energyterm=kJ/mole&tag=r21&monomerid=3534&enzyme=Epidermal+growth+factor+receptor&column=ki&startPg=0&Increment=50&submit=Search

> <Ligand HET ID in PDB>


> <PDB ID(s) for Ligand-Target Complex>


> <PubChem CID>
5328202

> <PubChem SID>
8033259

> <ChEBI ID of Ligand>


> <ChEMBL ID of Ligand>
CHEMBL316064

> <DrugBank ID of Ligand>


> <IUPHAR_GRAC ID of Ligand>


> <KEGG ID of Ligand>


> <ZINC ID of Ligand>
ZINC03815044

> <Number of Protein Chains in Target (>
1

> <BindingDB Target Chain Sequence>
MRPSGTAGAALLALLAALCPASRALEEKKVCQGTSNKLTQLGTFEDHFLSLQRMFNNCEVVLGNLEITYVQRNYDLSFLKTIQEVAGYVLIALNTVERIPLENLQIIRGNMYYENSYALAVLSNYDANKTGLKELPMRNLQEILHGAVRFSNNPALCNVESIQWRDIVSSDFLSNMSMDFQNHLGSCQKCDPSCPNGSCWGAGEENCQKLTKIICAQQCSGRCRGKSPSDCCHNQCAAGCTGPRESDCLVCRKFRDEATCKDTCPPLMLYNPTTYQMDVNPEGKYSFGATCVKKCPRNYVVTDHGSCVRACGADSYEMEEDGVRKCKKCEGPCRKVCNGIGIGEFKDSLSINATNIKHFKNCTSISGDLHILPVAFRGDSFTHTPPLDPQELDILKTVKEITGFLLIQAWPENRTDLHAFENLEIIRGRTKQHGQFSLAVVSLNITSLGLRSLKEISDGDVIISGNKNLCYANTINWKKLFGTSGQKTKIISNRGENSCKATGQVCHALCSPEGCWGPEPRDCVSCRNVSRGRECVDKCNLLEGEPREFVENSECIQCHPECLPQAMNITCTGRGPDNCIQCAHYIDGPHCVKTCPAGVMGENNTLVWKYADAGHVCHLCHPNCTYGCTGPGLEGCPTNGPKIPSIATGMVGALLLLLVVALGIGLFMRRRHIVRKRTLRRLLQERELVEPLTPSGEAPNQALLRILKETEFKKIKVLGSGAFGTVYKGLWIPEGEKVKIPVAIKELREATSPKANKEILDEAYVMASVDNPHVCRLLGICLTSTVQLITQLMPFGCLLDYVREHKDNIGSQYLLNWCVQIAKGMNYLEDRRLVHRDLAARNVLVKTPQHVKITDFGLAKLLGAEEKEYHAEGGKVPIKWMALESILHRIYTHQSDVWSYGVTVWELMTFGSKPYDGIPASEISSILEKGERLPQPPICTIDVYMIMVKCWMIDADSRPKFRELIIEFSKMARDPQRYLVIQGDERMHLPSPTDSNFYRALMDEEDMDDVVDADEYLIPQQGFFSSPSTSRTPLLSSLSATSNNSTVACIDRNGLQSCPIKEDSFLQRYSSDPTGALTEDSIDDTFLPVPEYINQSVPKRPAGSVQNPVYHNQPLNPAPSRDPHYQDPHSTAVGNPEYLNTVQPTCVNSTFDSPAHWAQKGSHQISLDNPDYQQDFFPKEAKPNGIFKGSTAENAEYLRVAPQSSEFIGA

> <PDB ID(s) of Target Chain>
1IVO,1M14,1M17,1MOX,1XKK,1Z9I,2GS2,2GS6,2ITW,2ITX,2ITY,2J5E,2J5F,2J6M,2RF9,2RGP,3B2V,3BEL,3GOP,3POZ,3QWQ,3VJO,3W2O,3W2P,3W2Q,3W2R,3W2S,3W32,3W33,4G5J,4I23,4JQ7,4JQ8,4JR3,4JRV,4KRO,4LI5,4RJ4,4RJ5,4RJ6,4RJ7,4RJ8,4TKS,4UIP,4UV7,4WKQ,4WRG,4ZAU,5C8K,5C8M,5C8N,5CAL,5CAN,5CAO,5CAP,5CAQ,5CAS,5CAU,5CAV,5EDP,5EDQ,5EDR,5EM5,5EM6,5EM7,5EM8,5FED,5GNK,5HCX,5HCY,5HCZ,5HIB,5HIC,5UGB,5WB7,5WB8,5Y25,6S89,6S8A

> <UniProt (SwissProt) Recommended Name of Target Chain>
Epidermal growth factor receptor

> <UniProt (SwissProt) Entry Name of Target Chain>
EGFR_HUMAN

> <UniProt (SwissProt) Primary ID of Target Chain>
P00533

> <UniProt (SwissProt) Secondary ID(s) of Target Chain>
O00688,O00732,P06268,Q14225,Q68GS5,Q92795,Q9BZS2,Q9GZX1,Q9H2C9,Q9H3C9,Q9UMD7,Q9UMD8,Q9UMG5

> <UniProt (SwissProt) Alternative ID(s) of Target Chain>


> <UniProt (TrEMBL) Submitted Name of Target Chain>


> <UniProt (TrEMBL) Entry Name of Target Chain>


> <UniProt (TrEMBL) Primary ID of Target Chain>


> <UniProt (TrEMBL) Secondary ID(s) of Target Chain>


> <UniProt (TrEMBL) Alternative ID(s) of Target Chain>


> <training label>
7.82391

> <i_lp_mmshare_version>
54117

> <s_epik_input>
W0NIM11PYyhbY0hdMSljKE9bQ0gzXSlbY0hdYyhjMTIpbltjSF1uYzJbTkhdYzNbY0hdW2NIXVtjSF1jKFtjSF0zKUMoRikoRilG

> <s_epik_cmdline>
J2VwaWtfcHl0aG9uJywgJy1waHQnLCAnMC4xJywgJy1waCcsICc3LjQnLCAnLXRuJywgJzgnLCAnLW1hJywgJzIwMCcsICctaW1hZScsICc8aW5maWxlLm1hZT4nLCAnLW9tYWUnLCAnPG91dGZpbGUubWFlPic=

> <r_lp_tautomer_probability>
1

> <r_epik_Ionization_Penalty>
  0.0006

> <r_epik_Ionization_Penalty_Charging>
  0.0000

> <r_epik_Ionization_Penalty_Neutral>
  0.0006

> <r_epik_State_Penalty>
  0.0000

> <r_epik_Charging_Adjusted_Penalty>
0

> <i_epik_Tot_Q>
0

> <i_epik_Tot_abs_Q>
0

> <i_f3d_flags>
0

> <s_lp_Force_Field>
OPLS_2005

> <r_lp_Energy>
20.932815

> <b_lp_Chiralities_Consistent>
1

> <s_lp_Variant>
BindingDB_3534_mol_1-1

> <s_i_glide_gridfile>
struct_1_site_1

> <i_i_glide_lignum>
216

> <i_i_glide_rotatable_bonds>
5

> <r_i_docking_score>
-8.07793236624454

> <r_i_glide_ligand_efficiency>
-0.323117294649782

> <r_i_glide_ligand_efficiency_sa>
-0.944800700065583

> <r_i_glide_ligand_efficiency_ln>
-1.91471204689863

> <r_i_glide_gscore>
-8.07793236624454

> <r_i_glide_lipo>
-2.91610665149255

> <r_i_glide_hbond>
-0.32

> <r_i_glide_metal>
0

> <r_i_glide_rewards>
-2.87126742876089

> <r_i_glide_evdw>
-30.5875396728516

> <r_i_glide_ecoul>
-5.02260112762451

> <r_i_glide_erotb>
0.312208866795158

> <r_i_glide_esite>
0

> <r_i_glide_emodel>
-36.2294948737172

> <r_i_glide_energy>
-35.6101408004761

> <r_i_glide_einternal>
3.77672362327576

> <i_i_glide_confnum>
2

> <i_i_glide_posenum>
56

> <r_i_glide_eff_state_penalty>
0

> <IC50 (nM)>
15

> <PMID>
22867529

> <r_glide_shape_similarity>
0.834712207317352

> <s_m_subgroup_title>
505 training

> <s_m_subgroupid>
pocket_pv

> <b_m_subgroup_collapsed>
0

$$$$
BindingDB_50190000_mol_1
                    3D
 Schrodinger Suite 2021-2.
 52 55  0  0  1  0            999 V2000
   21.8154   -1.9062   55.1521 N   0  0  0  0  0  0
   23.1087   -1.7343   55.4186 C   0  0  0  0  0  0
   23.9336   -0.8681   54.8374 N   0  0  0  0  0  0
   23.4250   -0.0828   53.8608 C   0  0  0  0  0  0
   21.2674   -1.1265   54.1941 C   0  0  0  0  0  0
   22.0515   -0.1656   53.4904 C   0  0  0  0  0  0
   21.4454    0.6406   52.4860 C   0  0  0  0  0  0
   20.0620    0.4690   52.1941 C   0  0  0  0  0  0
   19.2828   -0.4661   52.9038 C   0  0  0  0  0  0
   19.8957   -1.2615   53.8957 C   0  0  0  0  0  0
   17.9415   -0.5365   52.5645 O   0  0  0  0  0  0
   19.3159    1.1553   51.2705 O   0  0  0  0  0  0
   24.2815    0.8592   53.2618 N   0  0  0  0  0  0
   25.6855    0.9455   53.3356 C   0  0  0  0  0  0
   26.5324   -0.2004   53.3094 C   0  0  0  0  0  0
   27.9377   -0.0583   53.3841 C   0  0  0  0  0  0
   28.5077    1.2287   53.4468 C   0  0  0  0  0  0
   27.6776    2.3676   53.4315 C   0  0  0  0  0  0
   26.2741    2.2321   53.3751 C   0  0  0  0  0  0
   28.9639   -1.4549   53.3733 Cl  0  0  0  0  0  0
   26.0172   -1.4475   53.1457 F   0  0  0  0  0  0
   17.0484   -1.2394   53.4154 C   0  0  0  0  0  0
   19.8423    2.1610   50.4436 C   0  0  1  0  0  0
   20.6549    1.5303   49.2946 C   0  0  0  0  0  0
   20.9043    2.5755   48.1888 C   0  0  0  0  0  0
   19.6038    3.1195   47.6760 N   0  3  1  0  0  0
   18.8275    3.8053   48.7511 C   0  0  0  0  0  0
   18.5473    2.8271   49.9018 C   0  0  0  0  0  0
   19.7779    3.9792   46.4678 C   0  0  0  0  0  0
   23.5355   -2.3778   56.1690 H   0  0  0  0  0  0
   22.0241    1.3742   51.9474 H   0  0  0  0  0  0
   19.3246   -1.9883   54.4533 H   0  0  0  0  0  0
   23.8181    1.6407   52.8285 H   0  0  0  0  0  0
   29.5831    1.3473   53.4945 H   0  0  0  0  0  0
   28.1144    3.3543   53.4665 H   0  0  0  0  0  0
   25.6621    3.1247   53.3718 H   0  0  0  0  0  0
   16.0258   -1.0997   53.0648 H   0  0  0  0  0  0
   17.2608   -2.3103   53.4157 H   0  0  0  0  0  0
   17.1017   -0.8600   54.4358 H   0  0  0  0  0  0
   20.4316    2.8835   51.0112 H   0  0  0  0  0  0
   20.1051    0.6845   48.8758 H   0  0  0  0  0  0
   21.6015    1.1322   49.6593 H   0  0  0  0  0  0
   21.4737    2.1214   47.3806 H   0  0  0  0  0  0
   21.5175    3.3936   48.5743 H   0  0  0  0  0  0
   17.8855    4.1901   48.3539 H   0  0  0  0  0  0
   19.3921    4.6627   49.1205 H   0  0  0  0  0  0
   18.0261    3.3390   50.7121 H   0  0  0  0  0  0
   17.8590    2.0578   49.5435 H   0  0  0  0  0  0
   20.3969    4.8482   46.7020 H   0  0  0  0  0  0
   20.2644    3.4229   45.6646 H   0  0  0  0  0  0
   18.8106    4.3354   46.1021 H   0  0  0  0  0  0
   19.0347    2.3204   47.3930 H   0  0  0  0  0  0
  1  2  2  0  0  0
  1  5  1  0  0  0
  2  3  1  0  0  0
  2 30  1  0  0  0
  3  4  2  0  0  0
  4  6  1  0  0  0
  4 13  1  0  0  0
  5  6  1  0  0  0
  5 10  2  0  0  0
  6  7  2  0  0  0
  7  8  1  0  0  0
  7 31  1  0  0  0
  8  9  2  0  0  0
  8 12  1  0  0  0
  9 10  1  0  0  0
  9 11  1  0  0  0
 10 32  1  0  0  0
 11 22  1  0  0  0
 12 23  1  0  0  0
 13 14  1  0  0  0
 13 33  1  0  0  0
 14 15  1  0  0  0
 14 19  2  0  0  0
 15 16  2  0  0  0
 15 21  1  0  0  0
 16 17  1  0  0  0
 16 20  1  0  0  0
 17 18  2  0  0  0
 17 34  1  0  0  0
 18 19  1  0  0  0
 18 35  1  0  0  0
 19 36  1  0  0  0
 22 37  1  0  0  0
 22 38  1  0  0  0
 22 39  1  0  0  0
 23 24  1  0  0  0
 23 28  1  0  0  0
 23 40  1  0  0  0
 24 25  1  0  0  0
 24 41  1  0  0  0
 24 42  1  0  0  0
 25 26  1  0  0  0
 25 43  1  0  0  0
 25 44  1  0  0  0
 26 27  1  0  0  0
 26 29  1  0  0  0
 26 52  1  0  0  0
 27 28  1  0  0  0
 27 45  1  0  0  0
 27 46  1  0  0  0
 28 47  1  0  0  0
 28 48  1  0  0  0
 29 49  1  0  0  0
 29 50  1  0  0  0
 29 51  1  0  0  0
M  CHG  1  26   1
M  END
> <s_m_entry_id>
228

> <s_m_entry_name>
pocket_pv.39

> <s_m_Source_Path>
/home/bortolaa/Project/GT/mario-master/docking/set505protein_struct_1_site_1_set505ligs_train

> <s_m_Source_File>
pocket_pv.maegz

> <i_m_Source_File_Index>
39

> <From>
www.bindingDB.org

> <BindingDB Reactant_set_id>
50351571

> <Ligand InChI>
InChI=1S/C21H22ClFN4O2/c1-27-8-6-13(7-9-27)29-19-10-14-17(11-18(19)28-2)24-12-25-21(14)26-16-5-3-4-15(22)20(16)23/h3-5,10-13H,6-9H2,1-2H3,(H,24,25,26)

> <Ligand InChI Key>
PUGRPTFZBHHZPM-UHFFFAOYSA-N

> <BindingDB MonomerID>
50190000

> <BindingDB Ligand Name>
CHEMBL214798::N-(3-chloro-2-fluorophenyl)-7-methoxy-6-(1-methylpiperidin-4-yloxy)quinazolin-4-amine

> <Target Name Assigned by Curator or DataSource>
Epidermal growth factor receptor

> <Target Source Organism According to Curator or DataSource>
Homo sapiens

> <Ki (nM)>


> <Kd (nM)>


> <EC50 (nM)>


> <kon (M-1-s-1)>


> <koff (s-1)>


> <pH>


> <Temp C>


> <Curation/DataSource>
ChEMBL

> <Article DOI>
10.1016/j.bmcl.2006.06.054

> <PubChem AID>


> <Patent Number>


> <Authors>
Ballard, P; Bradbury, RH; Harris, CS; Hennequin, LF; Hickinson, M; Kettle, JG; Kendrew, J; Klinowska, T; Ogilvie, DJ; Pearson, SE; Williams, EJ; Wilson, I

> <Institution>
AstraZeneca

> <Link to Ligand in BindingDB>
http://www.bindingdb.org/bind/chemsearch/marvin/MolStructure.jsp?monomerid=50190000

> <Link to Ligand-Target Pair in BindingDB>
http://www.bindingdb.org/jsp/dbsearch/PrimarySearch_ki.jsp?energyterm=kJ/mole&tag=r21&monomerid=50190000&enzyme=Epidermal+growth+factor+receptor&column=ki&startPg=0&Increment=50&submit=Search

> <Ligand HET ID in PDB>


> <PDB ID(s) for Ligand-Target Complex>


> <PubChem CID>
10070557

> <PubChem SID>
104073422

> <ChEBI ID of Ligand>


> <ChEMBL ID of Ligand>
CHEMBL214798

> <DrugBank ID of Ligand>


> <IUPHAR_GRAC ID of Ligand>


> <KEGG ID of Ligand>


> <ZINC ID of Ligand>
ZINC34800078

> <Number of Protein Chains in Target (>
1

> <BindingDB Target Chain Sequence>
MRPSGTAGAALLALLAALCPASRALEEKKVCQGTSNKLTQLGTFEDHFLSLQRMFNNCEVVLGNLEITYVQRNYDLSFLKTIQEVAGYVLIALNTVERIPLENLQIIRGNMYYENSYALAVLSNYDANKTGLKELPMRNLQEILHGAVRFSNNPALCNVESIQWRDIVSSDFLSNMSMDFQNHLGSCQKCDPSCPNGSCWGAGEENCQKLTKIICAQQCSGRCRGKSPSDCCHNQCAAGCTGPRESDCLVCRKFRDEATCKDTCPPLMLYNPTTYQMDVNPEGKYSFGATCVKKCPRNYVVTDHGSCVRACGADSYEMEEDGVRKCKKCEGPCRKVCNGIGIGEFKDSLSINATNIKHFKNCTSISGDLHILPVAFRGDSFTHTPPLDPQELDILKTVKEITGFLLIQAWPENRTDLHAFENLEIIRGRTKQHGQFSLAVVSLNITSLGLRSLKEISDGDVIISGNKNLCYANTINWKKLFGTSGQKTKIISNRGENSCKATGQVCHALCSPEGCWGPEPRDCVSCRNVSRGRECVDKCNLLEGEPREFVENSECIQCHPECLPQAMNITCTGRGPDNCIQCAHYIDGPHCVKTCPAGVMGENNTLVWKYADAGHVCHLCHPNCTYGCTGPGLEGCPTNGPKIPSIATGMVGALLLLLVVALGIGLFMRRRHIVRKRTLRRLLQERELVEPLTPSGEAPNQALLRILKETEFKKIKVLGSGAFGTVYKGLWIPEGEKVKIPVAIKELREATSPKANKEILDEAYVMASVDNPHVCRLLGICLTSTVQLITQLMPFGCLLDYVREHKDNIGSQYLLNWCVQIAKGMNYLEDRRLVHRDLAARNVLVKTPQHVKITDFGLAKLLGAEEKEYHAEGGKVPIKWMALESILHRIYTHQSDVWSYGVTVWELMTFGSKPYDGIPASEISSILEKGERLPQPPICTIDVYMIMVKCWMIDADSRPKFRELIIEFSKMARDPQRYLVIQGDERMHLPSPTDSNFYRALMDEEDMDDVVDADEYLIPQQGFFSSPSTSRTPLLSSLSATSNNSTVACIDRNGLQSCPIKEDSFLQRYSSDPTGALTEDSIDDTFLPVPEYINQSVPKRPAGSVQNPVYHNQPLNPAPSRDPHYQDPHSTAVGNPEYLNTVQPTCVNSTFDSPAHWAQKGSHQISLDNPDYQQDFFPKEAKPNGIFKGSTAENAEYLRVAPQSSEFIGA

> <PDB ID(s) of Target Chain>
1IVO,1M14,1M17,1MOX,1XKK,1Z9I,2GS2,2GS6,2ITW,2ITX,2ITY,2J5E,2J5F,2J6M,2RF9,2RGP,3B2V,3BEL,3GOP,3POZ,3QWQ,3VJO,3W2O,3W2P,3W2Q,3W2R,3W2S,3W32,3W33,4G5J,4I23,4JQ7,4JQ8,4JR3,4JRV,4KRO,4LI5,4RJ4,4RJ5,4RJ6,4RJ7,4RJ8,4TKS,4UIP,4UV7,4WKQ,4WRG,4ZAU,5C8K,5C8M,5C8N,5CAL,5CAN,5CAO,5CAP,5CAQ,5CAS,5CAU,5CAV,5EDP,5EDQ,5EDR,5EM5,5EM6,5EM7,5EM8,5FED,5GNK,5HCX,5HCY,5HCZ,5HIB,5HIC,5UGB,5WB7,5WB8,5Y25,6S89,6S8A

> <UniProt (SwissProt) Recommended Name of Target Chain>
Epidermal growth factor receptor

> <UniProt (SwissProt) Entry Name of Target Chain>
EGFR_HUMAN

> <UniProt (SwissProt) Primary ID of Target Chain>
P00533

> <UniProt (SwissProt) Secondary ID(s) of Target Chain>
O00688,O00732,P06268,Q14225,Q68GS5,Q92795,Q9BZS2,Q9GZX1,Q9H2C9,Q9H3C9,Q9UMD7,Q9UMD8,Q9UMG5

> <UniProt (SwissProt) Alternative ID(s) of Target Chain>


> <UniProt (TrEMBL) Submitted Name of Target Chain>


> <UniProt (TrEMBL) Entry Name of Target Chain>


> <UniProt (TrEMBL) Primary ID of Target Chain>


> <UniProt (TrEMBL) Secondary ID(s) of Target Chain>


> <UniProt (TrEMBL) Alternative ID(s) of Target Chain>


> <training label>
8.69897

> <i_lp_mmshare_version>
54117

> <s_epik_input>
W2NIXTFbY0hdW2NIXWMoQ2wpYyhGKWMxW05IXWMobltjSF1uMiljKGMyMylbY0hdYyhjKFtjSF0zKU9bQ0gzXSlPW0NIXTRbQ0gyXVtDSDJdTihbQ0gzXSlbQ0gyXVtDSDJdNA==

> <s_epik_cmdline>
J2VwaWtfcHl0aG9uJywgJy1waHQnLCAnMC4xJywgJy1waCcsICc3LjQnLCAnLXRuJywgJzgnLCAnLW1hJywgJzIwMCcsICctaW1hZScsICc8aW5maWxlLm1hZT4nLCAnLW9tYWUnLCAnPG91dGZpbGUubWFlPic=

> <r_lp_tautomer_probability>
1

> <r_epik_Ionization_Penalty>
  0.0231

> <r_epik_Ionization_Penalty_Charging>
  0.0226

> <r_epik_Ionization_Penalty_Neutral>
  0.0005

> <r_epik_State_Penalty>
  0.0000

> <r_epik_Charging_Adjusted_Penalty>
0.0225555000722947

> <i_epik_Tot_Q>
1

> <i_epik_Tot_abs_Q>
1

> <i_f3d_flags>
0

> <s_lp_Force_Field>
OPLS_2005

> <r_lp_Energy>
34.172121

> <b_lp_Chiralities_Consistent>
1

> <s_lp_Variant>
BindingDB_50190000_mol_1-1

> <s_i_glide_gridfile>
struct_1_site_1

> <i_i_glide_lignum>
272

> <i_i_glide_rotatable_bonds>
5

> <r_i_docking_score>
-8.07757968082739

> <r_i_glide_ligand_efficiency>
-0.278537230373358

> <r_i_glide_ligand_efficiency_sa>
-0.855754618495477

> <r_i_glide_ligand_efficiency_ln>
-1.84956091716196

> <r_i_glide_gscore>
-8.07757968082739

> <r_i_glide_lipo>
-3.10119766215902

> <r_i_glide_hbond>
-0.32

> <r_i_glide_metal>
0

> <r_i_glide_rewards>
-2.1087941345923

> <r_i_glide_evdw>
-43.1258773803711

> <r_i_glide_ecoul>
-5.612952709198

> <r_i_glide_erotb>
0.452832715659473

> <r_i_glide_esite>
-0.00218382433728271

> <r_i_glide_emodel>
-63.297997621752

> <r_i_glide_energy>
-48.7388300895691

> <r_i_glide_einternal>
3.78291845321655

> <i_i_glide_confnum>
15

> <i_i_glide_posenum>
4

> <r_i_glide_eff_state_penalty>
0

> <IC50 (nM)>
2

> <PMID>
16806916

> <r_glide_shape_similarity>
0.860961019992828

> <s_m_subgroup_title>
505 training

> <s_m_subgroupid>
pocket_pv

> <b_m_subgroup_collapsed>
0

$$$$
BindingDB_3531_mol_1
                    3D
 Schrodinger Suite 2021-2.
 36 38  0  0  1  0            999 V2000
   21.5172    0.6411   52.4951 C   0  0  0  0  0  0
   19.3452   -0.3839   52.8361 C   0  0  0  0  0  0
   19.9102   -1.2032   53.8406 C   0  0  0  0  0  0
   22.0739   -0.1658   53.5013 C   0  0  0  0  0  0
   21.2715   -1.1061   54.1792 C   0  0  0  0  0  0
   23.4358   -0.0916   53.8638 C   0  0  0  0  0  0
   23.0945   -1.7232   55.4084 C   0  0  0  0  0  0
   23.9364   -0.8863   54.8221 N   0  0  0  0  0  0
   21.8053   -1.8855   55.1360 N   0  0  0  0  0  0
   24.2892    0.8504   53.2774 N   0  0  0  0  0  0
   23.8236    1.6230   52.8340 H   0  0  0  0  0  0
   25.6843    0.9477   53.3435 C   0  0  0  0  0  0
   27.6711    2.3589   53.4236 C   0  0  0  0  0  0
   26.2741    2.2235   53.3669 C   0  0  0  0  0  0
   26.5184   -0.1883   53.3351 C   0  0  0  0  0  0
   28.4925    1.2227   53.4385 C   0  0  0  0  0  0
   20.1627    0.5192   52.1405 C   0  0  0  0  0  0
   19.5796    1.2445   51.1306 O   0  0  0  0  0  0
   20.4095    1.6964   50.0730 C   0  0  0  0  0  0
   18.0263   -0.4063   52.4506 O   0  0  0  0  0  0
   17.1172   -1.1528   53.2260 C   0  0  0  0  0  0
   27.9146   -0.0526   53.3841 C   0  0  0  0  0  0
   28.7005   -1.1529   53.3796 F   0  0  0  0  0  0
   22.1387    1.3446   51.9678 H   0  0  0  0  0  0
   19.3085   -1.9127   54.3857 H   0  0  0  0  0  0
   23.5060   -2.3613   56.1748 H   0  0  0  0  0  0
   28.1090    3.3479   53.4560 H   0  0  0  0  0  0
   25.6583    3.1118   53.3504 H   0  0  0  0  0  0
   26.0957   -1.1818   53.2920 H   0  0  0  0  0  0
   29.5673    1.3333   53.4830 H   0  0  0  0  0  0
   19.7822    2.0145   49.2387 H   0  0  0  0  0  0
   21.0767    0.9065   49.7114 H   0  0  0  0  0  0
   21.0076    2.5541   50.3867 H   0  0  0  0  0  0
   16.1045   -0.9810   52.8555 H   0  0  0  0  0  0
   17.3199   -2.2224   53.1549 H   0  0  0  0  0  0
   17.1402   -0.8598   54.2771 H   0  0  0  0  0  0
  1  4  2  0  0  0
  1 17  1  0  0  0
  1 24  1  0  0  0
  2  3  1  0  0  0
  2 17  2  0  0  0
  2 20  1  0  0  0
  3  5  2  0  0  0
  3 25  1  0  0  0
  4  5  1  0  0  0
  4  6  1  0  0  0
  5  9  1  0  0  0
  6  8  2  0  0  0
  6 10  1  0  0  0
  7  8  1  0  0  0
  7  9  2  0  0  0
  7 26  1  0  0  0
 10 11  1  0  0  0
 10 12  1  0  0  0
 12 14  2  0  0  0
 12 15  1  0  0  0
 13 14  1  0  0  0
 13 16  2  0  0  0
 13 27  1  0  0  0
 14 28  1  0  0  0
 15 22  2  0  0  0
 15 29  1  0  0  0
 16 22  1  0  0  0
 16 30  1  0  0  0
 17 18  1  0  0  0
 18 19  1  0  0  0
 19 31  1  0  0  0
 19 32  1  0  0  0
 19 33  1  0  0  0
 20 21  1  0  0  0
 21 34  1  0  0  0
 21 35  1  0  0  0
 21 36  1  0  0  0
 22 23  1  0  0  0
M  END
> <s_m_entry_id>
229

> <s_m_entry_name>
pocket_pv.40

> <s_m_Source_Path>
/home/bortolaa/Project/GT/mario-master/docking/set505protein_struct_1_site_1_set505ligs_train

> <s_m_Source_File>
pocket_pv.maegz

> <i_m_Source_File_Index>
40

> <From>
www.bindingDB.org

> <BindingDB Reactant_set_id>
6577

> <Ligand InChI>
InChI=1S/C16H14FN3O2/c1-21-14-7-12-13(8-15(14)22-2)18-9-19-16(12)20-11-5-3-4-10(17)6-11/h3-9H,1-2H3,(H,18,19,20)

> <Ligand InChI Key>
DFWBDVRBHHFDNZ-UHFFFAOYSA-N

> <BindingDB MonomerID>
3531

> <BindingDB Ligand Name>
CHEMBL541586::CHEMBL94431::N-(3-fluorophenyl)-6,7-dimethoxyquinazolin-4-amine::PD153035 Analog 30

> <Target Name Assigned by Curator or DataSource>
Epidermal growth factor receptor

> <Target Source Organism According to Curator or DataSource>
Homo sapiens

> <Ki (nM)>


> <Kd (nM)>


> <EC50 (nM)>


> <kon (M-1-s-1)>


> <koff (s-1)>


> <Curation/DataSource>
Curated from the literature by BindingDB

> <Article DOI>
10.1021/jm050101d

> <PubChem AID>


> <Patent Number>


> <Authors>
Gazit, A; Chen, J; App, H; McMahon, G; Hirth, P; Chen, I; Levitzki, A

> <Institution>
Hebrew University of Jerusalem

> <Link to Ligand in BindingDB>
http://www.bindingdb.org/bind/chemsearch/marvin/MolStructure.jsp?monomerid=3531

> <Link to Ligand-Target Pair in BindingDB>
http://www.bindingdb.org/jsp/dbsearch/PrimarySearch_ki.jsp?energyterm=kJ/mole&tag=r21&monomerid=3531&enzyme=Epidermal+growth+factor+receptor&column=ki&startPg=0&Increment=50&submit=Search

> <Ligand HET ID in PDB>


> <PDB ID(s) for Ligand-Target Complex>


> <PubChem CID>
1474883

> <PubChem SID>
8033256

> <ChEBI ID of Ligand>


> <ChEMBL ID of Ligand>
CHEMBL94431
CHEMBL541586

> <DrugBank ID of Ligand>


> <IUPHAR_GRAC ID of Ligand>


> <KEGG ID of Ligand>


> <ZINC ID of Ligand>
ZINC01386818

> <Number of Protein Chains in Target (>
1

> <BindingDB Target Chain Sequence>
MRPSGTAGAALLALLAALCPASRALEEKKVCQGTSNKLTQLGTFEDHFLSLQRMFNNCEVVLGNLEITYVQRNYDLSFLKTIQEVAGYVLIALNTVERIPLENLQIIRGNMYYENSYALAVLSNYDANKTGLKELPMRNLQEILHGAVRFSNNPALCNVESIQWRDIVSSDFLSNMSMDFQNHLGSCQKCDPSCPNGSCWGAGEENCQKLTKIICAQQCSGRCRGKSPSDCCHNQCAAGCTGPRESDCLVCRKFRDEATCKDTCPPLMLYNPTTYQMDVNPEGKYSFGATCVKKCPRNYVVTDHGSCVRACGADSYEMEEDGVRKCKKCEGPCRKVCNGIGIGEFKDSLSINATNIKHFKNCTSISGDLHILPVAFRGDSFTHTPPLDPQELDILKTVKEITGFLLIQAWPENRTDLHAFENLEIIRGRTKQHGQFSLAVVSLNITSLGLRSLKEISDGDVIISGNKNLCYANTINWKKLFGTSGQKTKIISNRGENSCKATGQVCHALCSPEGCWGPEPRDCVSCRNVSRGRECVDKCNLLEGEPREFVENSECIQCHPECLPQAMNITCTGRGPDNCIQCAHYIDGPHCVKTCPAGVMGENNTLVWKYADAGHVCHLCHPNCTYGCTGPGLEGCPTNGPKIPSIATGMVGALLLLLVVALGIGLFMRRRHIVRKRTLRRLLQERELVEPLTPSGEAPNQALLRILKETEFKKIKVLGSGAFGTVYKGLWIPEGEKVKIPVAIKELREATSPKANKEILDEAYVMASVDNPHVCRLLGICLTSTVQLITQLMPFGCLLDYVREHKDNIGSQYLLNWCVQIAKGMNYLEDRRLVHRDLAARNVLVKTPQHVKITDFGLAKLLGAEEKEYHAEGGKVPIKWMALESILHRIYTHQSDVWSYGVTVWELMTFGSKPYDGIPASEISSILEKGERLPQPPICTIDVYMIMVKCWMIDADSRPKFRELIIEFSKMARDPQRYLVIQGDERMHLPSPTDSNFYRALMDEEDMDDVVDADEYLIPQQGFFSSPSTSRTPLLSSLSATSNNSTVACIDRNGLQSCPIKEDSFLQRYSSDPTGALTEDSIDDTFLPVPEYINQSVPKRPAGSVQNPVYHNQPLNPAPSRDPHYQDPHSTAVGNPEYLNTVQPTCVNSTFDSPAHWAQKGSHQISLDNPDYQQDFFPKEAKPNGIFKGSTAENAEYLRVAPQSSEFIGA

> <PDB ID(s) of Target Chain>
1IVO,1M14,1M17,1MOX,1XKK,1Z9I,2GS2,2GS6,2ITW,2ITX,2ITY,2J5E,2J5F,2J6M,2RF9,2RGP,3B2V,3BEL,3GOP,3POZ,3QWQ,3VJO,3W2O,3W2P,3W2Q,3W2R,3W2S,3W32,3W33,4G5J,4I23,4JQ7,4JQ8,4JR3,4JRV,4KRO,4LI5,4RJ4,4RJ5,4RJ6,4RJ7,4RJ8,4TKS,4UIP,4UV7,4WKQ,4WRG,4ZAU,5C8K,5C8M,5C8N,5CAL,5CAN,5CAO,5CAP,5CAQ,5CAS,5CAU,5CAV,5EDP,5EDQ,5EDR,5EM5,5EM6,5EM7,5EM8,5FED,5GNK,5HCX,5HCY,5HCZ,5HIB,5HIC,5UGB,5WB7,5WB8,5Y25,6S89,6S8A

> <UniProt (SwissProt) Recommended Name of Target Chain>
Epidermal growth factor receptor

> <UniProt (SwissProt) Entry Name of Target Chain>
EGFR_HUMAN

> <UniProt (SwissProt) Primary ID of Target Chain>
P00533

> <UniProt (SwissProt) Secondary ID(s) of Target Chain>
O00688,O00732,P06268,Q14225,Q68GS5,Q92795,Q9BZS2,Q9GZX1,Q9H2C9,Q9H3C9,Q9UMD7,Q9UMD8,Q9UMG5

> <UniProt (SwissProt) Alternative ID(s) of Target Chain>


> <UniProt (TrEMBL) Submitted Name of Target Chain>


> <UniProt (TrEMBL) Entry Name of Target Chain>


> <UniProt (TrEMBL) Primary ID of Target Chain>


> <UniProt (TrEMBL) Secondary ID(s) of Target Chain>


> <UniProt (TrEMBL) Alternative ID(s) of Target Chain>


> <training label>
7.04576

> <i_lp_mmshare_version>
54117

> <s_epik_input>
W0NIM11PYyhbY0hdMSljKE9bQ0gzXSlbY0hdYyhjMTIpbltjSF1uYzJbTkhdYzNbY0hdW2NIXVtjSF1jKEYpW2NIXTM=

> <s_epik_cmdline>
J2VwaWtfcHl0aG9uJywgJy1waHQnLCAnMC4xJywgJy1waCcsICc3LjQnLCAnLXRuJywgJzgnLCAnLW1hJywgJzIwMCcsICctaW1hZScsICc8aW5maWxlLm1hZT4nLCAnLW9tYWUnLCAnPG91dGZpbGUubWFlPic=

> <r_lp_tautomer_probability>
1

> <r_epik_Ionization_Penalty>
  0.0006

> <r_epik_Ionization_Penalty_Charging>
  0.0000

> <r_epik_Ionization_Penalty_Neutral>
  0.0006

> <r_epik_State_Penalty>
  0.0000

> <r_epik_Charging_Adjusted_Penalty>
0

> <i_epik_Tot_Q>
0

> <i_epik_Tot_abs_Q>
0

> <i_f3d_flags>
0

> <s_lp_Force_Field>
OPLS_2005

> <r_lp_Energy>
20.92385

> <b_lp_Chiralities_Consistent>
1

> <s_lp_Variant>
BindingDB_3531_mol_1-1

> <s_i_glide_gridfile>
struct_1_site_1

> <i_i_glide_lignum>
167

> <i_i_glide_rotatable_bonds>
4

> <r_i_docking_score>
-8.06534619738789

> <r_i_glide_ligand_efficiency>
-0.366606645335813

> <r_i_glide_ligand_efficiency_sa>
-1.02724623805216

> <r_i_glide_ligand_efficiency_ln>
-1.97146480129217

> <r_i_glide_gscore>
-8.06534619738789

> <r_i_glide_lipo>
-2.58227144123579

> <r_i_glide_hbond>
-0.32

> <r_i_glide_metal>
0

> <r_i_glide_rewards>
-2.98800684574012

> <r_i_glide_evdw>
-35.9036521911621

> <r_i_glide_ecoul>
-5.26594638824463

> <r_i_glide_erotb>
0.410006657382818

> <r_i_glide_esite>
0

> <r_i_glide_emodel>
-40.9755098591686

> <r_i_glide_energy>
-41.1695985794067

> <r_i_glide_einternal>
0.925785005092621

> <i_i_glide_confnum>
4

> <i_i_glide_posenum>
381

> <r_i_glide_eff_state_penalty>
0

> <IC50 (nM)>
90

> <PMID>
8879541

> <Temp C>
22

> <r_glide_shape_similarity>
0.787182986736298

> <pH>
7.6

> <s_m_subgroup_title>
505 training

> <s_m_subgroupid>
pocket_pv

> <b_m_subgroup_collapsed>
0

$$$$
4-Anilinoquinazoline
                    3D
 Schrodinger Suite 2021-2.
 60 63  0  0  1  0            999 V2000
   23.4640   -0.1055   53.8730 C   0  0  0  0  0  0
   23.0892   -1.7559   55.4263 C   0  0  0  0  0  0
   21.2724   -1.1031   54.1861 C   0  0  0  0  0  0
   22.0892   -0.1569   53.5017 C   0  0  0  0  0  0
   21.5318    0.6543   52.4875 C   0  0  0  0  0  0
   20.1667    0.5232   52.1285 C   0  0  0  0  0  0
   19.3465   -0.3930   52.8294 C   0  0  0  0  0  0
   19.9076   -1.2057   53.8436 C   0  0  0  0  0  0
   23.9337   -0.9097   54.8506 N   0  0  0  0  0  0
   21.7939   -1.8985   55.1484 N   0  0  0  0  0  0
   25.8189    0.5083   53.2549 C   0  0  0  0  0  0
   28.1266    1.3012   53.5476 C   0  0  0  0  0  0
   26.7397    1.5693   53.4318 C   0  0  0  0  0  0
   26.3288   -0.8093   53.1039 C   0  0  0  0  0  0
   27.7025   -1.0854   53.2382 C   0  0  0  0  0  0
   28.5964   -0.0320   53.4911 C   0  0  0  0  0  0
   26.2819    2.8341   53.5504 F   0  0  0  0  0  0
   24.4211    0.7372   53.2628 N   0  0  0  0  0  0
   24.0965    1.6379   52.9342 H   0  0  0  0  0  0
   19.5867    1.2626   51.1142 O   0  0  0  0  0  0
   20.3953    1.6104   49.9910 C   0  0  0  0  0  0
   30.2586   -0.4198   53.7737 Cl  0  0  0  0  0  0
   18.0318   -0.4674   52.4287 O   0  0  0  0  0  0
   17.0753   -1.0866   53.2821 C   0  0  0  0  0  0
   15.7807   -1.2507   52.4793 C   0  0  0  0  0  0
   15.2818    0.0681   51.8713 C   0  0  0  0  0  0
   13.3188    0.5042   53.2033 C   0  0  0  0  0  0
   12.5971    1.5120   54.1418 C   0  0  0  0  0  0
   13.9795    3.3251   53.2511 C   0  0  0  0  0  0
   14.6458    2.3075   52.2877 C   0  0  0  0  0  0
   14.6885    0.9549   52.8759 N   0  0  2  0  0  0
   12.5839    2.8954   53.5634 N   0  3  0  0  0  0
   11.8627    3.8845   54.4109 C   0  0  0  0  0  0
   23.5018   -2.4117   56.1797 H   0  0  0  0  0  0
   22.1593    1.3588   51.9663 H   0  0  0  0  0  0
   19.3172   -1.9239   54.3889 H   0  0  0  0  0  0
   28.8133    2.1110   53.7383 H   0  0  0  0  0  0
   25.6582   -1.6384   52.9431 H   0  0  0  0  0  0
   28.0651   -2.1008   53.1778 H   0  0  0  0  0  0
   19.7616    1.9338   49.1654 H   0  0  0  0  0  0
   21.0702    2.4328   50.2321 H   0  0  0  0  0  0
   20.9765    0.7568   49.6367 H   0  0  0  0  0  0
   16.9178   -0.4726   54.1719 H   0  0  0  0  0  0
   17.3867   -2.0815   53.6014 H   0  0  0  0  0  0
   15.0202   -1.7186   53.0995 H   0  0  0  0  0  0
   15.9661   -1.9511   51.6651 H   0  0  0  0  0  0
   14.5605   -0.1355   51.0789 H   0  0  0  0  0  0
   16.1171    0.5658   51.3804 H   0  0  0  0  0  0
   13.3439   -0.4769   53.6802 H   0  0  0  0  0  0
   12.7366    0.3997   52.2887 H   0  0  0  0  0  0
   11.5721    1.1803   54.3220 H   0  0  0  0  0  0
   13.0872    1.5335   55.1117 H   0  0  0  0  0  0
   13.9602    4.3117   52.7871 H   0  0  0  0  0  0
   14.5598    3.4255   54.1715 H   0  0  0  0  0  0
   14.1111    2.2868   51.3350 H   0  0  0  0  0  0
   15.6620    2.6396   52.0728 H   0  0  0  0  0  0
   12.3623    4.0109   55.3743 H   0  0  0  0  0  0
   11.8266    4.8575   53.9201 H   0  0  0  0  0  0
   10.8362    3.5613   54.5747 H   0  0  0  0  0  0
   12.0633    2.8521   52.6896 H   0  0  0  0  0  0
  1  4  2  0  0  0
  1  9  1  0  0  0
  1 18  1  0  0  0
  2  9  2  0  0  0
  2 10  1  0  0  0
  2 34  1  0  0  0
  3  4  1  0  0  0
  3  8  1  0  0  0
  3 10  2  0  0  0
  4  5  1  0  0  0
  5  6  2  0  0  0
  5 35  1  0  0  0
  6  7  1  0  0  0
  6 20  1  0  0  0
  7  8  2  0  0  0
  7 23  1  0  0  0
  8 36  1  0  0  0
 11 13  2  0  0  0
 11 14  1  0  0  0
 11 18  1  0  0  0
 12 13  1  0  0  0
 12 16  2  0  0  0
 12 37  1  0  0  0
 13 17  1  0  0  0
 14 15  2  0  0  0
 14 38  1  0  0  0
 15 16  1  0  0  0
 15 39  1  0  0  0
 16 22  1  0  0  0
 18 19  1  0  0  0
 20 21  1  0  0  0
 21 40  1  0  0  0
 21 41  1  0  0  0
 21 42  1  0  0  0
 23 24  1  0  0  0
 24 25  1  0  0  0
 24 43  1  0  0  0
 24 44  1  0  0  0
 25 26  1  0  0  0
 25 45  1  0  0  0
 25 46  1  0  0  0
 26 31  1  0  0  0
 26 47  1  0  0  0
 26 48  1  0  0  0
 27 28  1  0  0  0
 27 31  1  0  0  0
 27 49  1  0  0  0
 27 50  1  0  0  0
 28 32  1  0  0  0
 28 51  1  0  0  0
 28 52  1  0  0  0
 29 30  1  0  0  0
 29 32  1  0  0  0
 29 53  1  0  0  0
 29 54  1  0  0  0
 30 31  1  0  0  0
 30 55  1  0  0  0
 30 56  1  0  0  0
 32 33  1  0  0  0
 32 60  1  0  0  0
 33 57  1  0  0  0
 33 58  1  0  0  0
 33 59  1  0  0  0
M  CHG  1  32   1
M  END
> <s_m_entry_id>
230

> <s_m_entry_name>
pocket_pv.41

> <s_m_Source_Path>
/home/bortolaa/Project/GT/mario-master/docking/set505protein_struct_1_site_1_set505ligs_train

> <s_m_Source_File>
pocket_pv.maegz

> <i_m_Source_File_Index>
41

> <From>
www.bindingDB.org

> <BindingDB Reactant_set_id>
7071

> <Ligand InChI>
InChI=1S/C23H27ClFN5O2/c1-29-7-9-30(10-8-29)6-3-11-32-22-14-20-17(13-21(22)31-2)23(27-15-26-20)28-19-5-4-16(24)12-18(19)25/h4-5,12-15H,3,6-11H2,1-2H3,(H,26,27,28)

> <Ligand InChI Key>
LSHMOEOLVFEUHJ-UHFFFAOYSA-N

> <BindingDB MonomerID>
4657

> <BindingDB Ligand Name>
4-Anilinoquinazoline 4::N-(4-Chloro-2-fluorophenyl)-6-methoxy-7-[3-(4-methylpiperazin-1-yl)propoxy]quinazolin-4-amine

> <Target Name Assigned by Curator or DataSource>
Epidermal growth factor receptor

> <Target Source Organism According to Curator or DataSource>
Homo sapiens

> <Ki (nM)>


> <Kd (nM)>


> <EC50 (nM)>


> <kon (M-1-s-1)>


> <koff (s-1)>


> <pH>


> <Curation/DataSource>
Curated from the literature by BindingDB

> <Article DOI>
10.1021/jm011022e

> <PubChem AID>


> <Patent Number>


> <Authors>
Hennequin, LF; Stokes, ES; Thomas, AP; Johnstone, C; Ple, PA; Ogilvie, DJ; Dukes, M; Wedge, SR; Kendrew, J; Curwen, JO

> <Institution>
AstraZeneca

> <Link to Ligand in BindingDB>
http://www.bindingdb.org/bind/chemsearch/marvin/MolStructure.jsp?monomerid=4657

> <Link to Ligand-Target Pair in BindingDB>
http://www.bindingdb.org/jsp/dbsearch/PrimarySearch_ki.jsp?energyterm=kJ/mole&tag=r21&monomerid=4657&enzyme=Epidermal+growth+factor+receptor&column=ki&startPg=0&Increment=50&submit=Search

> <Ligand HET ID in PDB>


> <PDB ID(s) for Ligand-Target Complex>


> <PubChem CID>
5329035

> <PubChem SID>
8034318

> <ChEBI ID of Ligand>


> <ChEMBL ID of Ligand>


> <DrugBank ID of Ligand>


> <IUPHAR_GRAC ID of Ligand>


> <KEGG ID of Ligand>


> <ZINC ID of Ligand>
ZINC22925289

> <Number of Protein Chains in Target (>
1

> <BindingDB Target Chain Sequence>
MRPSGTAGAALLALLAALCPASRALEEKKVCQGTSNKLTQLGTFEDHFLSLQRMFNNCEVVLGNLEITYVQRNYDLSFLKTIQEVAGYVLIALNTVERIPLENLQIIRGNMYYENSYALAVLSNYDANKTGLKELPMRNLQEILHGAVRFSNNPALCNVESIQWRDIVSSDFLSNMSMDFQNHLGSCQKCDPSCPNGSCWGAGEENCQKLTKIICAQQCSGRCRGKSPSDCCHNQCAAGCTGPRESDCLVCRKFRDEATCKDTCPPLMLYNPTTYQMDVNPEGKYSFGATCVKKCPRNYVVTDHGSCVRACGADSYEMEEDGVRKCKKCEGPCRKVCNGIGIGEFKDSLSINATNIKHFKNCTSISGDLHILPVAFRGDSFTHTPPLDPQELDILKTVKEITGFLLIQAWPENRTDLHAFENLEIIRGRTKQHGQFSLAVVSLNITSLGLRSLKEISDGDVIISGNKNLCYANTINWKKLFGTSGQKTKIISNRGENSCKATGQVCHALCSPEGCWGPEPRDCVSCRNVSRGRECVDKCNLLEGEPREFVENSECIQCHPECLPQAMNITCTGRGPDNCIQCAHYIDGPHCVKTCPAGVMGENNTLVWKYADAGHVCHLCHPNCTYGCTGPGLEGCPTNGPKIPSIATGMVGALLLLLVVALGIGLFMRRRHIVRKRTLRRLLQERELVEPLTPSGEAPNQALLRILKETEFKKIKVLGSGAFGTVYKGLWIPEGEKVKIPVAIKELREATSPKANKEILDEAYVMASVDNPHVCRLLGICLTSTVQLITQLMPFGCLLDYVREHKDNIGSQYLLNWCVQIAKGMNYLEDRRLVHRDLAARNVLVKTPQHVKITDFGLAKLLGAEEKEYHAEGGKVPIKWMALESILHRIYTHQSDVWSYGVTVWELMTFGSKPYDGIPASEISSILEKGERLPQPPICTIDVYMIMVKCWMIDADSRPKFRELIIEFSKMARDPQRYLVIQGDERMHLPSPTDSNFYRALMDEEDMDDVVDADEYLIPQQGFFSSPSTSRTPLLSSLSATSNNSTVACIDRNGLQSCPIKEDSFLQRYSSDPTGALTEDSIDDTFLPVPEYINQSVPKRPAGSVQNPVYHNQPLNPAPSRDPHYQDPHSTAVGNPEYLNTVQPTCVNSTFDSPAHWAQKGSHQISLDNPDYQQDFFPKEAKPNGIFKGSTAENAEYLRVAPQSSEFIGA

> <PDB ID(s) of Target Chain>
1IVO,1M14,1M17,1MOX,1XKK,1Z9I,2GS2,2GS6,2ITW,2ITX,2ITY,2J5E,2J5F,2J6M,2RF9,2RGP,3B2V,3BEL,3GOP,3POZ,3QWQ,3VJO,3W2O,3W2P,3W2Q,3W2R,3W2S,3W32,3W33,4G5J,4I23,4JQ7,4JQ8,4JR3,4JRV,4KRO,4LI5,4RJ4,4RJ5,4RJ6,4RJ7,4RJ8,4TKS,4UIP,4UV7,4WKQ,4WRG,4ZAU,5C8K,5C8M,5C8N,5CAL,5CAN,5CAO,5CAP,5CAQ,5CAS,5CAU,5CAV,5EDP,5EDQ,5EDR,5EM5,5EM6,5EM7,5EM8,5FED,5GNK,5HCX,5HCY,5HCZ,5HIB,5HIC,5UGB,5WB7,5WB8,5Y25,6S89,6S8A

> <UniProt (SwissProt) Recommended Name of Target Chain>
Epidermal growth factor receptor

> <UniProt (SwissProt) Entry Name of Target Chain>
EGFR_HUMAN

> <UniProt (SwissProt) Primary ID of Target Chain>
P00533

> <UniProt (SwissProt) Secondary ID(s) of Target Chain>
O00688,O00732,P06268,Q14225,Q68GS5,Q92795,Q9BZS2,Q9GZX1,Q9H2C9,Q9H3C9,Q9UMD7,Q9UMD8,Q9UMG5

> <UniProt (SwissProt) Alternative ID(s) of Target Chain>


> <UniProt (TrEMBL) Submitted Name of Target Chain>


> <UniProt (TrEMBL) Entry Name of Target Chain>


> <UniProt (TrEMBL) Primary ID of Target Chain>


> <UniProt (TrEMBL) Secondary ID(s) of Target Chain>


> <UniProt (TrEMBL) Alternative ID(s) of Target Chain>


> <training label>
7.12494

> <i_lp_mmshare_version>
54117

> <s_epik_input>
W2NIXTFbY0hdYyhDbClbY0hdYyhGKWMxW05IXWMobltjSF1uMiljKGMyMylbY0hdYyhPW0NIM10pYyhbY0hdMylPW0NIMl1bQ0gyXVtDSDJdTjRbQ0gyXVtDSDJdTihbQ0gzXSlbQ0gyXVtDSDJdNA==

> <s_epik_cmdline>
J2VwaWtfcHl0aG9uJywgJy1waHQnLCAnMC4xJywgJy1waCcsICc3LjQnLCAnLXRuJywgJzgnLCAnLW1hJywgJzIwMCcsICctaW1hZScsICc8aW5maWxlLm1hZT4nLCAnLW9tYWUnLCAnPG91dGZpbGUubWFlPic=

> <r_lp_tautomer_probability>
0.999978000241998

> <r_epik_Ionization_Penalty>
  0.0669

> <r_epik_Ionization_Penalty_Charging>
  0.0659

> <r_epik_Ionization_Penalty_Neutral>
  0.0010

> <r_epik_State_Penalty>
  0.1437

> <r_epik_Charging_Adjusted_Penalty>
0.209599309145144

> <i_epik_Tot_Q>
1

> <i_epik_Tot_abs_Q>
1

> <i_f3d_flags>
0

> <s_lp_Force_Field>
OPLS_2005

> <r_lp_Energy>
33.440726

> <b_lp_Chiralities_Consistent>
1

> <s_lp_Variant>
4-Anilinoquinazoline-1

> <s_i_glide_gridfile>
struct_1_site_1

> <i_i_glide_lignum>
173

> <i_i_glide_rotatable_bonds>
8

> <r_i_docking_score>
-8.06393171956857

> <r_i_glide_ligand_efficiency>
-0.251997866236518

> <r_i_glide_ligand_efficiency_sa>
-0.800043354990934

> <r_i_glide_ligand_efficiency_ln>
-1.80573412648809

> <r_i_glide_gscore>
-8.20763171956857

> <r_i_glide_lipo>
-3.74162265749544

> <r_i_glide_hbond>
-0.32

> <r_i_glide_metal>
0

> <r_i_glide_rewards>
-1.40240732040616

> <r_i_glide_evdw>
-48.7536582946777

> <r_i_glide_ecoul>
-5.7911376953125

> <r_i_glide_erotb>
0.663258804443606

> <r_i_glide_esite>
-0.100506977079811

> <r_i_glide_emodel>
-58.9512556718282

> <r_i_glide_energy>
-54.5447959899902

> <r_i_glide_einternal>
5.48758935928345

> <i_i_glide_confnum>
88

> <i_i_glide_posenum>
1

> <r_i_glide_eff_state_penalty>
0.1437

> <IC50 (nM)>
75

> <PMID>
11881999

> <Temp C>
25

> <r_glide_shape_similarity>
0.761983215808868

> <s_m_subgroup_title>
505 training

> <s_m_subgroupid>
pocket_pv

> <b_m_subgroup_collapsed>
0

$$$$
BindingDB_50307790_mol_1
                    3D
 Schrodinger Suite 2021-2.
 56 58  0  0  1  0            999 V2000
   20.1886    0.5427   52.0889 C   0  0  0  0  0  0
   19.3616   -0.3824   52.7554 C   0  0  0  0  0  0
   19.8877   -1.2006   53.7942 C   0  0  0  0  0  0
   21.5390    0.6616   52.4793 C   0  0  0  0  0  0
   22.0734   -0.1629   53.5002 C   0  0  0  0  0  0
   21.2545   -1.1090   54.1754 C   0  0  0  0  0  0
   21.7905   -1.9000   55.1388 N   0  0  0  0  0  0
   23.0898   -1.7481   55.4149 C   0  0  0  0  0  0
   23.9404   -0.9059   54.8316 N   0  0  0  0  0  0
   23.4395   -0.0981   53.8707 C   0  0  0  0  0  0
   19.6165    1.2836   51.0685 O   0  0  0  0  0  0
   24.2893    0.8526   53.2747 N   0  0  0  0  0  0
   18.0913   -0.4657   52.2358 O   0  0  0  0  0  0
   17.0053   -0.7999   53.0686 C   0  0  0  0  0  0
   25.6858    0.9507   53.3403 C   0  0  0  0  0  0
   26.5126   -0.1987   53.3254 C   0  0  0  0  0  0
   27.9139   -0.0722   53.3866 C   0  0  0  0  0  0
   28.4947    1.2132   53.4629 C   0  0  0  0  0  0
   27.6773    2.3656   53.4337 C   0  0  0  0  0  0
   26.2746    2.2354   53.3713 C   0  0  0  0  0  0
   29.8373    1.3259   53.5916 F   0  0  0  0  0  0
   28.9089   -1.4924   53.3801 Cl  0  0  0  0  0  0
   15.7805   -0.0997   52.4420 C   0  0  0  0  0  0
   14.4728   -0.5571   53.1003 C   0  0  0  0  0  0
   13.2154    0.2149   52.6796 C   0  0  0  0  0  0
   13.1159    1.6159   53.3404 C   0  0  0  0  0  0
   11.6608    2.1311   53.5532 C   0  0  0  0  0  0
   20.4595    1.8128   50.0484 C   0  0  0  0  0  0
   10.8398    1.3348   54.6005 C   0  0  0  0  0  0
    9.5020    1.5338   54.5746 N   0  0  0  0  0  0
   11.4047    0.5753   55.4026 O   0  0  0  0  0  0
    8.7037    0.7867   55.4927 O   0  0  0  0  0  0
   19.2551   -1.9276   54.2825 H   0  0  0  0  0  0
   22.1701    1.3704   51.9699 H   0  0  0  0  0  0
   23.4939   -2.3950   56.1769 H   0  0  0  0  0  0
   23.8197    1.6300   52.8323 H   0  0  0  0  0  0
   17.1576   -0.4681   54.0970 H   0  0  0  0  0  0
   16.8811   -1.8824   53.0813 H   0  0  0  0  0  0
   26.0761   -1.1843   53.2642 H   0  0  0  0  0  0
   28.1233    3.3497   53.4846 H   0  0  0  0  0  0
   25.6629    3.1254   53.3661 H   0  0  0  0  0  0
   15.7352   -0.3071   51.3720 H   0  0  0  0  0  0
   15.8945    0.9787   52.5433 H   0  0  0  0  0  0
   14.5720   -0.4658   54.1751 H   0  0  0  0  0  0
   14.3282   -1.6202   52.9034 H   0  0  0  0  0  0
   12.3586   -0.3842   52.9835 H   0  0  0  0  0  0
   13.1509    0.2958   51.5943 H   0  0  0  0  0  0
   13.6726    2.3359   52.7394 H   0  0  0  0  0  0
   13.6139    1.6099   54.3101 H   0  0  0  0  0  0
   11.1261    2.1303   52.6004 H   0  0  0  0  0  0
   11.6938    3.1703   53.8870 H   0  0  0  0  0  0
   19.8460    2.1452   49.2096 H   0  0  0  0  0  0
   21.0259    2.6736   50.4127 H   0  0  0  0  0  0
   21.1601    1.0650   49.6717 H   0  0  0  0  0  0
    8.9442    2.1886   54.0009 H   0  0  0  0  0  0
    7.8415    1.1700   55.3958 H   0  0  0  0  0  0
  1  2  2  0  0  0
  1  4  1  0  0  0
  1 11  1  0  0  0
  2  3  1  0  0  0
  2 13  1  0  0  0
  3  6  2  0  0  0
  3 33  1  0  0  0
  4  5  2  0  0  0
  4 34  1  0  0  0
  5  6  1  0  0  0
  5 10  1  0  0  0
  6  7  1  0  0  0
  7  8  2  0  0  0
  8  9  1  0  0  0
  8 35  1  0  0  0
  9 10  2  0  0  0
 10 12  1  0  0  0
 11 28  1  0  0  0
 12 15  1  0  0  0
 12 36  1  0  0  0
 13 14  1  0  0  0
 14 23  1  0  0  0
 14 37  1  0  0  0
 14 38  1  0  0  0
 15 16  2  0  0  0
 15 20  1  0  0  0
 16 17  1  0  0  0
 16 39  1  0  0  0
 17 18  2  0  0  0
 17 22  1  0  0  0
 18 19  1  0  0  0
 18 21  1  0  0  0
 19 20  2  0  0  0
 19 40  1  0  0  0
 20 41  1  0  0  0
 23 24  1  0  0  0
 23 42  1  0  0  0
 23 43  1  0  0  0
 24 25  1  0  0  0
 24 44  1  0  0  0
 24 45  1  0  0  0
 25 26  1  0  0  0
 25 46  1  0  0  0
 25 47  1  0  0  0
 26 27  1  0  0  0
 26 48  1  0  0  0
 26 49  1  0  0  0
 27 29  1  0  0  0
 27 50  1  0  0  0
 27 51  1  0  0  0
 28 52  1  0  0  0
 28 53  1  0  0  0
 28 54  1  0  0  0
 29 30  1  0  0  0
 29 31  2  0  0  0
 30 32  1  0  0  0
 30 55  1  0  0  0
 32 56  1  0  0  0
M  END
> <s_m_entry_id>
231

> <s_m_entry_name>
pocket_pv.42

> <s_m_Source_Path>
/home/bortolaa/Project/GT/mario-master/docking/set505protein_struct_1_site_1_set505ligs_train

> <s_m_Source_File>
pocket_pv.maegz

> <i_m_Source_File_Index>
42

> <From>
www.bindingDB.org

> <BindingDB Reactant_set_id>
50552138

> <Ligand InChI>
InChI=1S/C22H24ClFN4O4/c1-31-19-11-15-18(12-20(19)32-9-5-3-2-4-6-21(29)28-30)25-13-26-22(15)27-14-7-8-17(24)16(23)10-14/h7-8,10-13,30H,2-6,9H2,1H3,(H,28,29)(H,25,26,27)

> <Ligand InChI Key>
SOCMOTGNRXRMOH-UHFFFAOYSA-N

> <BindingDB MonomerID>
50307790

> <BindingDB Ligand Name>
7-(4-(3-chloro-4-fluorophenylamino)-6-methoxyquinazolin-7-yloxy)-N-hydroxyheptanamide::CHEMBL598610

> <Target Name Assigned by Curator or DataSource>
Epidermal growth factor receptor

> <Target Source Organism According to Curator or DataSource>
Homo sapiens

> <Ki (nM)>


> <Kd (nM)>


> <EC50 (nM)>


> <kon (M-1-s-1)>


> <koff (s-1)>


> <pH>


> <Temp C>


> <Curation/DataSource>
ChEMBL

> <Article DOI>
10.1021/jm901453q

> <PubChem AID>


> <Patent Number>


> <Authors>
Cai, X; Zhai, HX; Wang, J; Forrester, J; Qu, H; Yin, L; Lai, CJ; Bao, R; Qian, C

> <Institution>
Curis Inc

> <Link to Ligand in BindingDB>
http://www.bindingdb.org/bind/chemsearch/marvin/MolStructure.jsp?monomerid=50307790

> <Link to Ligand-Target Pair in BindingDB>
http://www.bindingdb.org/jsp/dbsearch/PrimarySearch_ki.jsp?energyterm=kJ/mole&tag=r21&monomerid=50307790&enzyme=Epidermal+growth+factor+receptor&column=ki&startPg=0&Increment=50&submit=Search

> <Ligand HET ID in PDB>


> <PDB ID(s) for Ligand-Target Complex>


> <PubChem CID>
24944856

> <PubChem SID>
104162151

> <ChEBI ID of Ligand>


> <ChEMBL ID of Ligand>
CHEMBL598610

> <DrugBank ID of Ligand>


> <IUPHAR_GRAC ID of Ligand>


> <KEGG ID of Ligand>


> <ZINC ID of Ligand>
ZINC45357546

> <Number of Protein Chains in Target (>
1

> <BindingDB Target Chain Sequence>
MRPSGTAGAALLALLAALCPASRALEEKKVCQGTSNKLTQLGTFEDHFLSLQRMFNNCEVVLGNLEITYVQRNYDLSFLKTIQEVAGYVLIALNTVERIPLENLQIIRGNMYYENSYALAVLSNYDANKTGLKELPMRNLQEILHGAVRFSNNPALCNVESIQWRDIVSSDFLSNMSMDFQNHLGSCQKCDPSCPNGSCWGAGEENCQKLTKIICAQQCSGRCRGKSPSDCCHNQCAAGCTGPRESDCLVCRKFRDEATCKDTCPPLMLYNPTTYQMDVNPEGKYSFGATCVKKCPRNYVVTDHGSCVRACGADSYEMEEDGVRKCKKCEGPCRKVCNGIGIGEFKDSLSINATNIKHFKNCTSISGDLHILPVAFRGDSFTHTPPLDPQELDILKTVKEITGFLLIQAWPENRTDLHAFENLEIIRGRTKQHGQFSLAVVSLNITSLGLRSLKEISDGDVIISGNKNLCYANTINWKKLFGTSGQKTKIISNRGENSCKATGQVCHALCSPEGCWGPEPRDCVSCRNVSRGRECVDKCNLLEGEPREFVENSECIQCHPECLPQAMNITCTGRGPDNCIQCAHYIDGPHCVKTCPAGVMGENNTLVWKYADAGHVCHLCHPNCTYGCTGPGLEGCPTNGPKIPSIATGMVGALLLLLVVALGIGLFMRRRHIVRKRTLRRLLQERELVEPLTPSGEAPNQALLRILKETEFKKIKVLGSGAFGTVYKGLWIPEGEKVKIPVAIKELREATSPKANKEILDEAYVMASVDNPHVCRLLGICLTSTVQLITQLMPFGCLLDYVREHKDNIGSQYLLNWCVQIAKGMNYLEDRRLVHRDLAARNVLVKTPQHVKITDFGLAKLLGAEEKEYHAEGGKVPIKWMALESILHRIYTHQSDVWSYGVTVWELMTFGSKPYDGIPASEISSILEKGERLPQPPICTIDVYMIMVKCWMIDADSRPKFRELIIEFSKMARDPQRYLVIQGDERMHLPSPTDSNFYRALMDEEDMDDVVDADEYLIPQQGFFSSPSTSRTPLLSSLSATSNNSTVACIDRNGLQSCPIKEDSFLQRYSSDPTGALTEDSIDDTFLPVPEYINQSVPKRPAGSVQNPVYHNQPLNPAPSRDPHYQDPHSTAVGNPEYLNTVQPTCVNSTFDSPAHWAQKGSHQISLDNPDYQQDFFPKEAKPNGIFKGSTAENAEYLRVAPQSSEFIGA

> <PDB ID(s) of Target Chain>
1IVO,1M14,1M17,1MOX,1XKK,1Z9I,2GS2,2GS6,2ITW,2ITX,2ITY,2J5E,2J5F,2J6M,2RF9,2RGP,3B2V,3BEL,3GOP,3POZ,3QWQ,3VJO,3W2O,3W2P,3W2Q,3W2R,3W2S,3W32,3W33,4G5J,4I23,4JQ7,4JQ8,4JR3,4JRV,4KRO,4LI5,4RJ4,4RJ5,4RJ6,4RJ7,4RJ8,4TKS,4UIP,4UV7,4WKQ,4WRG,4ZAU,5C8K,5C8M,5C8N,5CAL,5CAN,5CAO,5CAP,5CAQ,5CAS,5CAU,5CAV,5EDP,5EDQ,5EDR,5EM5,5EM6,5EM7,5EM8,5FED,5GNK,5HCX,5HCY,5HCZ,5HIB,5HIC,5UGB,5WB7,5WB8,5Y25,6S89,6S8A

> <UniProt (SwissProt) Recommended Name of Target Chain>
Epidermal growth factor receptor

> <UniProt (SwissProt) Entry Name of Target Chain>
EGFR_HUMAN

> <UniProt (SwissProt) Primary ID of Target Chain>
P00533

> <UniProt (SwissProt) Secondary ID(s) of Target Chain>
O00688,O00732,P06268,Q14225,Q68GS5,Q92795,Q9BZS2,Q9GZX1,Q9H2C9,Q9H3C9,Q9UMD7,Q9UMD8,Q9UMG5

> <UniProt (SwissProt) Alternative ID(s) of Target Chain>


> <UniProt (TrEMBL) Submitted Name of Target Chain>


> <UniProt (TrEMBL) Entry Name of Target Chain>


> <UniProt (TrEMBL) Primary ID of Target Chain>


> <UniProt (TrEMBL) Secondary ID(s) of Target Chain>


> <UniProt (TrEMBL) Alternative ID(s) of Target Chain>


> <training label>
8.1549

> <i_lp_mmshare_version>
54117

> <s_epik_input>
W09IXVtOSF1DKD1PKVtDSDJdW0NIMl1bQ0gyXVtDSDJdW0NIMl1bQ0gyXU9jKGMoW2NIXTEpT1tDSDNdKVtjSF1jKGMxMiluW2NIXW5jMltOSF1jM1tjSF1jKENsKWMoRilbY0hdW2NIXTM=

> <s_epik_cmdline>
J2VwaWtfcHl0aG9uJywgJy1waHQnLCAnMC4xJywgJy1waCcsICc3LjQnLCAnLXRuJywgJzgnLCAnLW1hJywgJzIwMCcsICctaW1hZScsICc8aW5maWxlLm1hZT4nLCAnLW9tYWUnLCAnPG91dGZpbGUubWFlPic=

> <r_lp_tautomer_probability>
1

> <r_epik_Ionization_Penalty>
  0.0094

> <r_epik_Ionization_Penalty_Charging>
  0.0000

> <r_epik_Ionization_Penalty_Neutral>
  0.0094

> <r_epik_State_Penalty>
  0.0000

> <r_epik_Charging_Adjusted_Penalty>
0

> <i_epik_Tot_Q>
0

> <i_epik_Tot_abs_Q>
0

> <i_f3d_flags>
0

> <s_lp_Force_Field>
OPLS_2005

> <r_lp_Energy>
28.344835

> <b_lp_Chiralities_Consistent>
1

> <s_lp_Variant>
BindingDB_50307790_mol_1-1

> <s_i_glide_gridfile>
struct_1_site_1

> <i_i_glide_lignum>
246

> <i_i_glide_rotatable_bonds>
13

> <r_i_docking_score>
-8.06102439814999

> <r_i_glide_ligand_efficiency>
-0.251907012442187

> <r_i_glide_ligand_efficiency_sa>
-0.799754912173876

> <r_i_glide_ligand_efficiency_ln>
-1.80508309797188

> <r_i_glide_gscore>
-8.06102439814999

> <r_i_glide_lipo>
-3.0818680518618

> <r_i_glide_hbond>
-0.456

> <r_i_glide_metal>
0

> <r_i_glide_rewards>
-1.40112934153253

> <r_i_glide_evdw>
-45.2193946838379

> <r_i_glide_ecoul>
-11.2764539718628

> <r_i_glide_erotb>
1.03427931408297

> <r_i_glide_esite>
-0.203868488867319

> <r_i_glide_emodel>
-64.3942730461529

> <r_i_glide_energy>
-56.4958486557007

> <r_i_glide_einternal>
5.90812063217163

> <i_i_glide_confnum>
586

> <i_i_glide_posenum>
102

> <r_i_glide_eff_state_penalty>
0

> <IC50 (nM)>
7

> <PMID>
20143778

> <s_epik_Chemistry_Notes>
This compound has a N-S or N-O group and may undergo hydrolysis at high or low pH.

> <r_glide_shape_similarity>
0.804295063018799

> <s_m_subgroup_title>
505 training

> <s_m_subgroupid>
pocket_pv

> <b_m_subgroup_collapsed>
0

$$$$
Anilinoquinazoline
                    3D
 Schrodinger Suite 2021-2.
 36 38  0  0  1  0            999 V2000
   21.5157    0.6439   52.4941 C   0  0  0  0  0  0
   20.1597    0.5218   52.1422 C   0  0  0  0  0  0
   19.3412   -0.3845   52.8354 C   0  0  0  0  0  0
   19.9085   -1.2031   53.8376 C   0  0  0  0  0  0
   22.0729   -0.1665   53.4997 C   0  0  0  0  0  0
   21.2703   -1.1073   54.1776 C   0  0  0  0  0  0
   23.4336   -0.0901   53.8666 C   0  0  0  0  0  0
   23.0892   -1.7221   55.4116 C   0  0  0  0  0  0
   23.9252   -0.8700   54.8391 N   0  0  0  0  0  0
   21.8015   -1.8893   55.1341 N   0  0  0  0  0  0
   25.6847    0.9464   53.3436 C   0  0  0  0  0  0
   27.9193   -0.0493   53.3819 C   0  0  0  0  0  0
   26.5266   -0.1863   53.3220 C   0  0  0  0  0  0
   26.2725    2.2235   53.3737 C   0  0  0  0  0  0
   27.6693    2.3602   53.4261 C   0  0  0  0  0  0
   28.4942    1.2266   53.4413 C   0  0  0  0  0  0
   24.2879    0.8495   53.2746 N   0  0  0  0  0  0
   23.8226    1.6199   52.8303 H   0  0  0  0  0  0
   18.0192   -0.4060   52.4578 O   0  0  0  0  0  0
   17.1089   -1.1508   53.2348 C   0  0  0  0  0  0
   19.5842    1.2625   51.1395 O   0  0  0  0  0  0
   20.3904    1.5731   50.0156 C   0  0  0  0  0  0
   26.0210   -1.4279   53.1781 F   0  0  0  0  0  0
   22.1347    1.3553   51.9697 H   0  0  0  0  0  0
   19.3022   -1.9119   54.3817 H   0  0  0  0  0  0
   23.5029   -2.3636   56.1742 H   0  0  0  0  0  0
   28.5483   -0.9278   53.3627 H   0  0  0  0  0  0
   25.6593    3.1145   53.3677 H   0  0  0  0  0  0
   28.1091    3.3472   53.4587 H   0  0  0  0  0  0
   29.5694    1.3389   53.4847 H   0  0  0  0  0  0
   16.0938   -0.9650   52.8831 H   0  0  0  0  0  0
   17.3044   -2.2201   53.1507 H   0  0  0  0  0  0
   17.1476   -0.8663   54.2869 H   0  0  0  0  0  0
   19.7516    1.8665   49.1846 H   0  0  0  0  0  0
   20.9748    0.7127   49.6887 H   0  0  0  0  0  0
   21.0617    2.4058   50.2300 H   0  0  0  0  0  0
  1  2  1  0  0  0
  1  5  2  0  0  0
  1 24  1  0  0  0
  2  3  2  0  0  0
  2 21  1  0  0  0
  3  4  1  0  0  0
  3 19  1  0  0  0
  4  6  2  0  0  0
  4 25  1  0  0  0
  5  6  1  0  0  0
  5  7  1  0  0  0
  6 10  1  0  0  0
  7  9  2  0  0  0
  7 17  1  0  0  0
  8  9  1  0  0  0
  8 10  2  0  0  0
  8 26  1  0  0  0
 11 13  2  0  0  0
 11 14  1  0  0  0
 11 17  1  0  0  0
 12 13  1  0  0  0
 12 16  2  0  0  0
 12 27  1  0  0  0
 13 23  1  0  0  0
 14 15  2  0  0  0
 14 28  1  0  0  0
 15 16  1  0  0  0
 15 29  1  0  0  0
 16 30  1  0  0  0
 17 18  1  0  0  0
 19 20  1  0  0  0
 20 31  1  0  0  0
 20 32  1  0  0  0
 20 33  1  0  0  0
 21 22  1  0  0  0
 22 34  1  0  0  0
 22 35  1  0  0  0
 22 36  1  0  0  0
M  END
> <s_m_entry_id>
232

> <s_m_entry_name>
pocket_pv.43

> <s_m_Source_Path>
/home/bortolaa/Project/GT/mario-master/docking/set505protein_struct_1_site_1_set505ligs_train

> <s_m_Source_File>
pocket_pv.maegz

> <i_m_Source_File_Index>
43

> <From>
www.bindingDB.org

> <BindingDB Reactant_set_id>
50844864

> <Ligand InChI>
InChI=1S/C16H14FN3O2/c1-21-14-7-10-13(8-15(14)22-2)18-9-19-16(10)20-12-6-4-3-5-11(12)17/h3-9H,1-2H3,(H,18,19,20)

> <Ligand InChI Key>
MBQWMGKHDDVEPF-UHFFFAOYSA-N

> <BindingDB MonomerID>
4619

> <BindingDB Ligand Name>
Anilinoquinazoline deriv. 2::CHEMBL1204360::CHEMBL150581::N-(2-Fluorophenyl)-6,7-dimethoxy-4-quinazolinylamine::N-(2-fluorophenyl)-6,7-dimethoxyquinazolin-4-amine

> <Target Name Assigned by Curator or DataSource>
Epidermal growth factor receptor

> <Target Source Organism According to Curator or DataSource>
Homo sapiens

> <Ki (nM)>


> <Kd (nM)>


> <EC50 (nM)>


> <kon (M-1-s-1)>


> <koff (s-1)>


> <pH>


> <Temp C>


> <Curation/DataSource>
ChEMBL

> <Article DOI>
10.1021/jm050607w

> <PubChem AID>


> <Patent Number>


> <Authors>
VanBrocklin, HF; Lim, JK; Coffing, SL; Hom, DL; Negash, K; Ono, MY; Gilmore, JL; Bryant, I; Riese, DJ

> <Institution>
Lawrence Berkeley National Laboratory

> <Link to Ligand in BindingDB>
http://www.bindingdb.org/bind/chemsearch/marvin/MolStructure.jsp?monomerid=4619

> <Link to Ligand-Target Pair in BindingDB>
http://www.bindingdb.org/jsp/dbsearch/PrimarySearch_ki.jsp?energyterm=kJ/mole&tag=r21&monomerid=4619&enzyme=Epidermal+growth+factor+receptor&column=ki&startPg=0&Increment=50&submit=Search

> <Ligand HET ID in PDB>


> <PDB ID(s) for Ligand-Target Complex>


> <PubChem CID>
5329005

> <PubChem SID>
8034282

> <ChEBI ID of Ligand>


> <ChEMBL ID of Ligand>
CHEMBL150581
CHEMBL1204360

> <DrugBank ID of Ligand>


> <IUPHAR_GRAC ID of Ligand>


> <KEGG ID of Ligand>


> <ZINC ID of Ligand>
ZINC05610419

> <Number of Protein Chains in Target (>
1

> <BindingDB Target Chain Sequence>
MRPSGTAGAALLALLAALCPASRALEEKKVCQGTSNKLTQLGTFEDHFLSLQRMFNNCEVVLGNLEITYVQRNYDLSFLKTIQEVAGYVLIALNTVERIPLENLQIIRGNMYYENSYALAVLSNYDANKTGLKELPMRNLQEILHGAVRFSNNPALCNVESIQWRDIVSSDFLSNMSMDFQNHLGSCQKCDPSCPNGSCWGAGEENCQKLTKIICAQQCSGRCRGKSPSDCCHNQCAAGCTGPRESDCLVCRKFRDEATCKDTCPPLMLYNPTTYQMDVNPEGKYSFGATCVKKCPRNYVVTDHGSCVRACGADSYEMEEDGVRKCKKCEGPCRKVCNGIGIGEFKDSLSINATNIKHFKNCTSISGDLHILPVAFRGDSFTHTPPLDPQELDILKTVKEITGFLLIQAWPENRTDLHAFENLEIIRGRTKQHGQFSLAVVSLNITSLGLRSLKEISDGDVIISGNKNLCYANTINWKKLFGTSGQKTKIISNRGENSCKATGQVCHALCSPEGCWGPEPRDCVSCRNVSRGRECVDKCNLLEGEPREFVENSECIQCHPECLPQAMNITCTGRGPDNCIQCAHYIDGPHCVKTCPAGVMGENNTLVWKYADAGHVCHLCHPNCTYGCTGPGLEGCPTNGPKIPSIATGMVGALLLLLVVALGIGLFMRRRHIVRKRTLRRLLQERELVEPLTPSGEAPNQALLRILKETEFKKIKVLGSGAFGTVYKGLWIPEGEKVKIPVAIKELREATSPKANKEILDEAYVMASVDNPHVCRLLGICLTSTVQLITQLMPFGCLLDYVREHKDNIGSQYLLNWCVQIAKGMNYLEDRRLVHRDLAARNVLVKTPQHVKITDFGLAKLLGAEEKEYHAEGGKVPIKWMALESILHRIYTHQSDVWSYGVTVWELMTFGSKPYDGIPASEISSILEKGERLPQPPICTIDVYMIMVKCWMIDADSRPKFRELIIEFSKMARDPQRYLVIQGDERMHLPSPTDSNFYRALMDEEDMDDVVDADEYLIPQQGFFSSPSTSRTPLLSSLSATSNNSTVACIDRNGLQSCPIKEDSFLQRYSSDPTGALTEDSIDDTFLPVPEYINQSVPKRPAGSVQNPVYHNQPLNPAPSRDPHYQDPHSTAVGNPEYLNTVQPTCVNSTFDSPAHWAQKGSHQISLDNPDYQQDFFPKEAKPNGIFKGSTAENAEYLRVAPQSSEFIGA

> <PDB ID(s) of Target Chain>
1IVO,1M14,1M17,1MOX,1XKK,1Z9I,2GS2,2GS6,2ITW,2ITX,2ITY,2J5E,2J5F,2J6M,2RF9,2RGP,3B2V,3BEL,3GOP,3POZ,3QWQ,3VJO,3W2O,3W2P,3W2Q,3W2R,3W2S,3W32,3W33,4G5J,4I23,4JQ7,4JQ8,4JR3,4JRV,4KRO,4LI5,4RJ4,4RJ5,4RJ6,4RJ7,4RJ8,4TKS,4UIP,4UV7,4WKQ,4WRG,4ZAU,5C8K,5C8M,5C8N,5CAL,5CAN,5CAO,5CAP,5CAQ,5CAS,5CAU,5CAV,5EDP,5EDQ,5EDR,5EM5,5EM6,5EM7,5EM8,5FED,5GNK,5HCX,5HCY,5HCZ,5HIB,5HIC,5UGB,5WB7,5WB8,5Y25,6S89,6S8A

> <UniProt (SwissProt) Recommended Name of Target Chain>
Epidermal growth factor receptor

> <UniProt (SwissProt) Entry Name of Target Chain>
EGFR_HUMAN

> <UniProt (SwissProt) Primary ID of Target Chain>
P00533

> <UniProt (SwissProt) Secondary ID(s) of Target Chain>
O00688,O00732,P06268,Q14225,Q68GS5,Q92795,Q9BZS2,Q9GZX1,Q9H2C9,Q9H3C9,Q9UMD7,Q9UMD8,Q9UMG5

> <UniProt (SwissProt) Alternative ID(s) of Target Chain>


> <UniProt (TrEMBL) Submitted Name of Target Chain>


> <UniProt (TrEMBL) Entry Name of Target Chain>


> <UniProt (TrEMBL) Primary ID of Target Chain>


> <UniProt (TrEMBL) Secondary ID(s) of Target Chain>


> <UniProt (TrEMBL) Alternative ID(s) of Target Chain>


> <training label>
7.49214

> <i_lp_mmshare_version>
54117

> <s_epik_input>
W0NIM11PYyhbY0hdMSljKE9bQ0gzXSlbY0hdYyhjMTIpbltjSF1uYzJbTkhdYzNjKEYpW2NIXVtjSF1bY0hdW2NIXTM=

> <s_epik_cmdline>
J2VwaWtfcHl0aG9uJywgJy1waHQnLCAnMC4xJywgJy1waCcsICc3LjQnLCAnLXRuJywgJzgnLCAnLW1hJywgJzIwMCcsICctaW1hZScsICc8aW5maWxlLm1hZT4nLCAnLW9tYWUnLCAnPG91dGZpbGUubWFlPic=

> <r_lp_tautomer_probability>
1

> <r_epik_Ionization_Penalty>
  0.0006

> <r_epik_Ionization_Penalty_Charging>
  0.0000

> <r_epik_Ionization_Penalty_Neutral>
  0.0006

> <r_epik_State_Penalty>
  0.0000

> <r_epik_Charging_Adjusted_Penalty>
0

> <i_epik_Tot_Q>
0

> <i_epik_Tot_abs_Q>
0

> <i_f3d_flags>
0

> <s_lp_Force_Field>
OPLS_2005

> <r_lp_Energy>
19.849194

> <b_lp_Chiralities_Consistent>
1

> <s_lp_Variant>
Anilinoquinazoline-1

> <s_i_glide_gridfile>
struct_1_site_1

> <i_i_glide_lignum>
197

> <i_i_glide_rotatable_bonds>
4

> <r_i_docking_score>
-8.04142020918264

> <r_i_glide_ligand_efficiency>
-0.365519100417393

> <r_i_glide_ligand_efficiency_sa>
-1.02419889442003

> <r_i_glide_ligand_efficiency_ln>
-1.96561641705318

> <r_i_glide_gscore>
-8.04142020918264

> <r_i_glide_lipo>
-2.59295688191603

> <r_i_glide_hbond>
-0.32

> <r_i_glide_metal>
0

> <r_i_glide_rewards>
-2.92925982725502

> <r_i_glide_evdw>
-35.6671600341797

> <r_i_glide_ecoul>
-5.50568103790283

> <r_i_glide_erotb>
0.410006657382818

> <r_i_glide_esite>
0

> <r_i_glide_emodel>
-38.8015283440088

> <r_i_glide_energy>
-41.1728410720825

> <r_i_glide_einternal>
2.6973819732666

> <i_i_glide_confnum>
11

> <i_i_glide_posenum>
345

> <r_i_glide_eff_state_penalty>
0

> <IC50 (nM)>
32.2

> <PMID>
16279804

> <r_glide_shape_similarity>
0.772227346897125

> <s_m_subgroup_title>
505 training

> <s_m_subgroupid>
pocket_pv

> <b_m_subgroup_collapsed>
0

$$$$
BindingDB_50117952
                    3D
 Schrodinger Suite 2021-2.
 49 52  0  0  1  0            999 V2000
   22.0179   -0.1664   53.4806 C   0  0  0  0  0  0
   23.3695   -0.0510   53.8670 C   0  0  0  0  0  0
   21.2234   -1.1229   54.1677 C   0  0  0  0  0  0
   21.4712    0.6426   52.4540 C   0  0  0  0  0  0
   23.9102   -0.8657   54.8099 N   0  0  0  0  0  0
   19.8494   -1.2135   53.8122 C   0  0  0  0  0  0
   28.5137   -0.8741   53.2459 C   0  0  0  0  0  0
   24.1090    1.0187   53.3331 N   0  0  0  0  0  0
   20.1137    0.5266   52.0943 C   0  0  0  0  0  0
   19.2873   -0.3859   52.7928 C   0  0  0  0  0  0
   21.7828   -1.9016   55.1331 N   0  0  0  0  0  0
   27.7066    0.2915   53.2563 C   0  0  0  0  0  0
   29.7711   -0.6728   53.6879 O   0  0  0  0  0  0
   23.0860   -1.7330   55.3979 C   0  0  0  0  0  0
   25.4821    1.2126   53.3337 C   0  0  0  0  0  0
   26.3234    0.1042   53.2305 C   0  0  0  0  0  0
   28.2417   -2.1894   52.9794 C   0  0  0  0  0  0
   30.2888   -1.8975   53.7742 C   0  0  0  0  0  0
   29.4132   -2.8707   53.3746 C   0  0  0  0  0  0
   19.5320    1.2944   51.0997 O   0  0  0  0  0  0
   17.9675   -0.4117   52.3700 O   0  0  0  0  0  0
   28.2764    1.5783   53.3744 C   0  0  0  0  0  0
   27.4259    2.6886   53.4465 C   0  0  0  0  0  0
   26.0261    2.5158   53.4074 C   0  0  0  0  0  0
   16.9426   -0.8856   53.2345 C   0  0  0  0  0  0
   20.3294    1.7026   49.9852 C   0  0  0  0  0  0
   15.6107   -0.2204   52.8157 C   0  0  0  0  0  0
   19.4237    2.4212   48.9654 C   0  0  0  0  0  0
   22.0876    1.3534   51.9301 H   0  0  0  0  0  0
   19.2277   -1.9231   54.3365 H   0  0  0  0  0  0
   23.5732    1.7729   52.9289 H   0  0  0  0  0  0
   23.5118   -2.3702   56.1585 H   0  0  0  0  0  0
   25.9051   -0.8879   53.1493 H   0  0  0  0  0  0
   27.3097   -2.6121   52.6351 H   0  0  0  0  0  0
   31.2595   -1.8773   54.2353 H   0  0  0  0  0  0
   29.5618   -3.9378   53.4038 H   0  0  0  0  0  0
   29.3470    1.7251   53.4213 H   0  0  0  0  0  0
   27.8562    3.6634   53.5668 H   0  0  0  0  0  0
   25.3862    3.3848   53.4718 H   0  0  0  0  0  0
   16.8702   -1.9707   53.1534 H   0  0  0  0  0  0
   17.1659   -0.6521   54.2745 H   0  0  0  0  0  0
   20.7926    0.8291   49.5203 H   0  0  0  0  0  0
   21.1216    2.3865   50.2953 H   0  0  0  0  0  0
   14.7942   -0.5426   53.4617 H   0  0  0  0  0  0
   15.6775    0.8651   52.8821 H   0  0  0  0  0  0
   15.3492   -0.4772   51.7895 H   0  0  0  0  0  0
   19.9845    2.6937   48.0722 H   0  0  0  0  0  0
   18.9969    3.3334   49.3849 H   0  0  0  0  0  0
   18.5965    1.7807   48.6572 H   0  0  0  0  0  0
  1  2  1  0  0  0
  1  3  1  0  0  0
  1  4  2  0  0  0
  2  5  2  0  0  0
  2  8  1  0  0  0
  3  6  2  0  0  0
  3 11  1  0  0  0
  4  9  1  0  0  0
  4 29  1  0  0  0
  5 14  1  0  0  0
  6 10  1  0  0  0
  6 30  1  0  0  0
  7 12  1  0  0  0
  7 13  1  0  0  0
  7 17  2  0  0  0
  8 15  1  0  0  0
  8 31  1  0  0  0
  9 10  2  0  0  0
  9 20  1  0  0  0
 10 21  1  0  0  0
 11 14  2  0  0  0
 12 16  1  0  0  0
 12 22  2  0  0  0
 13 18  1  0  0  0
 14 32  1  0  0  0
 15 16  2  0  0  0
 15 24  1  0  0  0
 16 33  1  0  0  0
 17 19  1  0  0  0
 17 34  1  0  0  0
 18 19  2  0  0  0
 18 35  1  0  0  0
 19 36  1  0  0  0
 20 26  1  0  0  0
 21 25  1  0  0  0
 22 23  1  0  0  0
 22 37  1  0  0  0
 23 24  2  0  0  0
 23 38  1  0  0  0
 24 39  1  0  0  0
 25 27  1  0  0  0
 25 40  1  0  0  0
 25 41  1  0  0  0
 26 28  1  0  0  0
 26 42  1  0  0  0
 26 43  1  0  0  0
 27 44  1  0  0  0
 27 45  1  0  0  0
 27 46  1  0  0  0
 28 47  1  0  0  0
 28 48  1  0  0  0
 28 49  1  0  0  0
M  END
> <s_m_entry_id>
233

> <s_m_entry_name>
pocket_pv.44

> <s_m_Source_Path>
/home/bortolaa/Project/GT/mario-master/docking/set505protein_struct_1_site_1_set505ligs_train

> <s_m_Source_File>
pocket_pv.maegz

> <i_m_Source_File_Index>
44

> <From>
www.bindingDB.org

> <BindingDB Reactant_set_id>
50212931

> <Ligand InChI>
InChI=1S/C22H21N3O3/c1-3-26-20-12-17-18(13-21(20)27-4-2)23-14-24-22(17)25-16-8-5-7-15(11-16)19-9-6-10-28-19/h5-14H,3-4H2,1-2H3,(H,23,24,25)

> <Ligand InChI Key>
BIWPVOALWJBGSX-UHFFFAOYSA-N

> <BindingDB MonomerID>
50117952

> <BindingDB Ligand Name>
(6,7-Diethoxy-quinazolin-4-yl)-(3-furan-2-yl-phenyl)-amine::CHEMBL125086

> <Target Name Assigned by Curator or DataSource>
Epidermal growth factor receptor

> <Target Source Organism According to Curator or DataSource>
Homo sapiens

> <Ki (nM)>


> <Kd (nM)>


> <EC50 (nM)>


> <kon (M-1-s-1)>


> <koff (s-1)>


> <pH>


> <Temp C>


> <Curation/DataSource>
ChEMBL

> <Article DOI>
10.1021/jm010496a

> <PubChem AID>


> <Patent Number>


> <Authors>
Wright, SW; Carlo, AA; Carty, MD; Danley, DE; Hageman, DL; Karam, GA; Levy, CB; Mansour, MN; Mathiowetz, AM; McClure, LD; Nestor, NB; McPherson, RK; Pandit, J; Pustilnik, LR; Schulte, GK; Soeller, WC; Treadway, JL; Wang, IK; Bauer, PH

> <Institution>
Pfizer Central Research

> <Link to Ligand in BindingDB>
http://www.bindingdb.org/bind/chemsearch/marvin/MolStructure.jsp?monomerid=50117952

> <Link to Ligand-Target Pair in BindingDB>
http://www.bindingdb.org/jsp/dbsearch/PrimarySearch_ki.jsp?energyterm=kJ/mole&tag=r21&monomerid=50117952&enzyme=Epidermal+growth+factor+receptor&column=ki&startPg=0&Increment=50&submit=Search

> <Ligand HET ID in PDB>


> <PDB ID(s) for Ligand-Target Complex>


> <PubChem CID>
10309300

> <PubChem SID>
104011356

> <ChEBI ID of Ligand>


> <ChEMBL ID of Ligand>
CHEMBL125086

> <DrugBank ID of Ligand>


> <IUPHAR_GRAC ID of Ligand>


> <KEGG ID of Ligand>


> <ZINC ID of Ligand>
ZINC13490801

> <Number of Protein Chains in Target (>
1

> <BindingDB Target Chain Sequence>
MRPSGTAGAALLALLAALCPASRALEEKKVCQGTSNKLTQLGTFEDHFLSLQRMFNNCEVVLGNLEITYVQRNYDLSFLKTIQEVAGYVLIALNTVERIPLENLQIIRGNMYYENSYALAVLSNYDANKTGLKELPMRNLQEILHGAVRFSNNPALCNVESIQWRDIVSSDFLSNMSMDFQNHLGSCQKCDPSCPNGSCWGAGEENCQKLTKIICAQQCSGRCRGKSPSDCCHNQCAAGCTGPRESDCLVCRKFRDEATCKDTCPPLMLYNPTTYQMDVNPEGKYSFGATCVKKCPRNYVVTDHGSCVRACGADSYEMEEDGVRKCKKCEGPCRKVCNGIGIGEFKDSLSINATNIKHFKNCTSISGDLHILPVAFRGDSFTHTPPLDPQELDILKTVKEITGFLLIQAWPENRTDLHAFENLEIIRGRTKQHGQFSLAVVSLNITSLGLRSLKEISDGDVIISGNKNLCYANTINWKKLFGTSGQKTKIISNRGENSCKATGQVCHALCSPEGCWGPEPRDCVSCRNVSRGRECVDKCNLLEGEPREFVENSECIQCHPECLPQAMNITCTGRGPDNCIQCAHYIDGPHCVKTCPAGVMGENNTLVWKYADAGHVCHLCHPNCTYGCTGPGLEGCPTNGPKIPSIATGMVGALLLLLVVALGIGLFMRRRHIVRKRTLRRLLQERELVEPLTPSGEAPNQALLRILKETEFKKIKVLGSGAFGTVYKGLWIPEGEKVKIPVAIKELREATSPKANKEILDEAYVMASVDNPHVCRLLGICLTSTVQLITQLMPFGCLLDYVREHKDNIGSQYLLNWCVQIAKGMNYLEDRRLVHRDLAARNVLVKTPQHVKITDFGLAKLLGAEEKEYHAEGGKVPIKWMALESILHRIYTHQSDVWSYGVTVWELMTFGSKPYDGIPASEISSILEKGERLPQPPICTIDVYMIMVKCWMIDADSRPKFRELIIEFSKMARDPQRYLVIQGDERMHLPSPTDSNFYRALMDEEDMDDVVDADEYLIPQQGFFSSPSTSRTPLLSSLSATSNNSTVACIDRNGLQSCPIKEDSFLQRYSSDPTGALTEDSIDDTFLPVPEYINQSVPKRPAGSVQNPVYHNQPLNPAPSRDPHYQDPHSTAVGNPEYLNTVQPTCVNSTFDSPAHWAQKGSHQISLDNPDYQQDFFPKEAKPNGIFKGSTAENAEYLRVAPQSSEFIGA

> <PDB ID(s) of Target Chain>
1IVO,1M14,1M17,1MOX,1XKK,1Z9I,2GS2,2GS6,2ITW,2ITX,2ITY,2J5E,2J5F,2J6M,2RF9,2RGP,3B2V,3BEL,3GOP,3POZ,3QWQ,3VJO,3W2O,3W2P,3W2Q,3W2R,3W2S,3W32,3W33,4G5J,4I23,4JQ7,4JQ8,4JR3,4JRV,4KRO,4LI5,4RJ4,4RJ5,4RJ6,4RJ7,4RJ8,4TKS,4UIP,4UV7,4WKQ,4WRG,4ZAU,5C8K,5C8M,5C8N,5CAL,5CAN,5CAO,5CAP,5CAQ,5CAS,5CAU,5CAV,5EDP,5EDQ,5EDR,5EM5,5EM6,5EM7,5EM8,5FED,5GNK,5HCX,5HCY,5HCZ,5HIB,5HIC,5UGB,5WB7,5WB8,5Y25,6S89,6S8A

> <UniProt (SwissProt) Recommended Name of Target Chain>
Epidermal growth factor receptor

> <UniProt (SwissProt) Entry Name of Target Chain>
EGFR_HUMAN

> <UniProt (SwissProt) Primary ID of Target Chain>
P00533

> <UniProt (SwissProt) Secondary ID(s) of Target Chain>
O00688,O00732,P06268,Q14225,Q68GS5,Q92795,Q9BZS2,Q9GZX1,Q9H2C9,Q9H3C9,Q9UMD7,Q9UMD8,Q9UMG5

> <UniProt (SwissProt) Alternative ID(s) of Target Chain>


> <UniProt (TrEMBL) Submitted Name of Target Chain>


> <UniProt (TrEMBL) Entry Name of Target Chain>


> <UniProt (TrEMBL) Primary ID of Target Chain>


> <UniProt (TrEMBL) Secondary ID(s) of Target Chain>


> <UniProt (TrEMBL) Alternative ID(s) of Target Chain>


> <training label>
8.52288

> <i_lp_mmshare_version>
54117

> <s_epik_input>
W0NIM11bQ0gyXU9jKFtjSF0xKWMoT1tDSDJdW0NIM10pW2NIXWMoYzEyKW5bY0hdbmMyW05IXWMoW2NIXVtjSF1bY0hdMylbY0hdYzMtYzRvW2NIXVtjSF1bY0hdNA==

> <s_epik_cmdline>
J2VwaWtfcHl0aG9uJywgJy1waHQnLCAnMC4xJywgJy1waCcsICc3LjQnLCAnLXRuJywgJzgnLCAnLW1hJywgJzIwMCcsICctaW1hZScsICc8aW5maWxlLm1hZT4nLCAnLW9tYWUnLCAnPG91dGZpbGUubWFlPic=

> <r_lp_tautomer_probability>
1

> <r_epik_Ionization_Penalty>
  0.0005

> <r_epik_Ionization_Penalty_Charging>
  0.0000

> <r_epik_Ionization_Penalty_Neutral>
  0.0005

> <r_epik_State_Penalty>
  0.0000

> <r_epik_Charging_Adjusted_Penalty>
0

> <i_epik_Tot_Q>
0

> <i_epik_Tot_abs_Q>
0

> <i_f3d_flags>
0

> <s_lp_Force_Field>
OPLS_2005

> <r_lp_Energy>
18.95884

> <b_lp_Chiralities_Consistent>
1

> <s_lp_Variant>
BindingDB_50117952-1

> <s_i_glide_gridfile>
struct_1_site_1

> <i_i_glide_lignum>
264

> <i_i_glide_rotatable_bonds>
7

> <r_i_docking_score>
-8.036626279906

> <r_i_glide_ligand_efficiency>
-0.2870223671395

> <r_i_glide_ligand_efficiency_sa>
-0.871568953769371

> <r_i_glide_ligand_efficiency_ln>
-1.85508931100323

> <r_i_glide_gscore>
-8.036626279906

> <r_i_glide_lipo>
-3.63455532300434

> <r_i_glide_hbond>
-0.32

> <r_i_glide_metal>
0

> <r_i_glide_rewards>
-2.0175995763727

> <r_i_glide_evdw>
-36.5391540527344

> <r_i_glide_ecoul>
-6.15903520584106

> <r_i_glide_erotb>
0.686341602983925

> <r_i_glide_esite>
0

> <r_i_glide_emodel>
-55.0356300281439

> <r_i_glide_energy>
-42.6981892585754

> <r_i_glide_einternal>
1.77711284160614

> <i_i_glide_confnum>
15

> <i_i_glide_posenum>
181

> <r_i_glide_eff_state_penalty>
0

> <IC50 (nM)>
3

> <PMID>
12190310

> <r_glide_shape_similarity>
0.897240102291107

> <s_m_subgroup_title>
505 training

> <s_m_subgroupid>
pocket_pv

> <b_m_subgroup_collapsed>
0

$$$$
BindingDB_3532_mol_1
                    3D
 Schrodinger Suite 2021-2.
 36 38  0  0  1  0            999 V2000
   21.5197    0.6427   52.4964 C   0  0  0  0  0  0
   19.3444   -0.3810   52.8337 C   0  0  0  0  0  0
   19.9088   -1.2010   53.8379 C   0  0  0  0  0  0
   22.0752   -0.1681   53.5027 C   0  0  0  0  0  0
   21.2709   -1.1086   54.1790 C   0  0  0  0  0  0
   23.4376   -0.0973   53.8666 C   0  0  0  0  0  0
   23.0934   -1.7334   55.4078 C   0  0  0  0  0  0
   23.9369   -0.8963   54.8229 N   0  0  0  0  0  0
   21.8022   -1.8904   55.1365 N   0  0  0  0  0  0
   24.2891    0.8478   53.2769 N   0  0  0  0  0  0
   23.8233    1.6215   52.8352 H   0  0  0  0  0  0
   25.6837    0.9479   53.3433 C   0  0  0  0  0  0
   27.6698    2.3609   53.4229 C   0  0  0  0  0  0
   26.2736    2.2241   53.3692 C   0  0  0  0  0  0
   26.5147   -0.1887   53.3343 C   0  0  0  0  0  0
   28.4914    1.2250   53.4386 C   0  0  0  0  0  0
   20.1649    0.5227   52.1414 C   0  0  0  0  0  0
   19.6001    1.2716   51.1387 O   0  0  0  0  0  0
   20.3952    1.5166   49.9908 C   0  0  0  0  0  0
   18.0243   -0.4007   52.4500 O   0  0  0  0  0  0
   17.1103   -1.1463   53.2211 C   0  0  0  0  0  0
   27.9108   -0.0497   53.3838 C   0  0  0  0  0  0
   28.9098   -1.4454   53.3745 Cl  0  0  0  0  0  0
   22.1362    1.3561   51.9727 H   0  0  0  0  0  0
   19.3020   -1.9087   54.3810 H   0  0  0  0  0  0
   23.5045   -2.3740   56.1731 H   0  0  0  0  0  0
   28.1052    3.3519   53.4543 H   0  0  0  0  0  0
   25.6620    3.1160   53.3615 H   0  0  0  0  0  0
   26.0871   -1.1790   53.2832 H   0  0  0  0  0  0
   29.5667    1.3346   53.4812 H   0  0  0  0  0  0
   19.7540    1.8424   49.1715 H   0  0  0  0  0  0
   20.9158    0.6162   49.6629 H   0  0  0  0  0  0
   21.1244    2.3051   50.1716 H   0  0  0  0  0  0
   16.1021   -0.9909   52.8380 H   0  0  0  0  0  0
   17.3250   -2.2143   53.1679 H   0  0  0  0  0  0
   17.1185   -0.8330   54.2653 H   0  0  0  0  0  0
  1  4  2  0  0  0
  1 17  1  0  0  0
  1 24  1  0  0  0
  2  3  1  0  0  0
  2 17  2  0  0  0
  2 20  1  0  0  0
  3  5  2  0  0  0
  3 25  1  0  0  0
  4  5  1  0  0  0
  4  6  1  0  0  0
  5  9  1  0  0  0
  6  8  2  0  0  0
  6 10  1  0  0  0
  7  8  1  0  0  0
  7  9  2  0  0  0
  7 26  1  0  0  0
 10 11  1  0  0  0
 10 12  1  0  0  0
 12 14  2  0  0  0
 12 15  1  0  0  0
 13 14  1  0  0  0
 13 16  2  0  0  0
 13 27  1  0  0  0
 14 28  1  0  0  0
 15 22  2  0  0  0
 15 29  1  0  0  0
 16 22  1  0  0  0
 16 30  1  0  0  0
 17 18  1  0  0  0
 18 19  1  0  0  0
 19 31  1  0  0  0
 19 32  1  0  0  0
 19 33  1  0  0  0
 20 21  1  0  0  0
 21 34  1  0  0  0
 21 35  1  0  0  0
 21 36  1  0  0  0
 22 23  1  0  0  0
M  END
> <s_m_entry_id>
234

> <s_m_entry_name>
pocket_pv.45

> <s_m_Source_Path>
/home/bortolaa/Project/GT/mario-master/docking/set505protein_struct_1_site_1_set505ligs_train

> <s_m_Source_File>
pocket_pv.maegz

> <i_m_Source_File_Index>
45

> <From>
www.bindingDB.org

> <BindingDB Reactant_set_id>
6578

> <Ligand InChI>
InChI=1S/C16H14ClN3O2/c1-21-14-7-12-13(8-15(14)22-2)18-9-19-16(12)20-11-5-3-4-10(17)6-11/h3-9H,1-2H3,(H,18,19,20)

> <Ligand InChI Key>
GFNNBHLJANVSQV-UHFFFAOYSA-N

> <BindingDB MonomerID>
3532

> <BindingDB Ligand Name>
CHEMBL540068::CHEMBL7917::N-(3-chlorophenyl)-6,7-dimethoxyquinazolin-4-amine::PD153035 Analog 31

> <Target Name Assigned by Curator or DataSource>
Epidermal growth factor receptor

> <Target Source Organism According to Curator or DataSource>
Homo sapiens

> <Ki (nM)>


> <IC50 (nM)>
900

> <Kd (nM)>


> <EC50 (nM)>


> <kon (M-1-s-1)>


> <koff (s-1)>


> <Curation/DataSource>
Curated from the literature by BindingDB

> <Article DOI>
10.1021/jm050101d

> <PubChem AID>


> <Patent Number>


> <Authors>
Gazit, A; Chen, J; App, H; McMahon, G; Hirth, P; Chen, I; Levitzki, A

> <Institution>
Hebrew University of Jerusalem

> <Link to Ligand in BindingDB>
http://www.bindingdb.org/bind/chemsearch/marvin/MolStructure.jsp?monomerid=3532

> <Link to Ligand-Target Pair in BindingDB>
http://www.bindingdb.org/jsp/dbsearch/PrimarySearch_ki.jsp?energyterm=kJ/mole&tag=r21&monomerid=3532&enzyme=Epidermal+growth+factor+receptor&column=ki&startPg=0&Increment=50&submit=Search

> <Ligand HET ID in PDB>
0TO

> <PDB ID(s) for Ligand-Target Complex>
4FEX

> <PubChem CID>
2051

> <PubChem SID>
8033257

> <ChEMBL ID of Ligand>
CHEMBL540068
CHEMBL7917

> <DrugBank ID of Ligand>


> <KEGG ID of Ligand>


> <ZINC ID of Ligand>
ZINC00116937

> <Number of Protein Chains in Target (>
1

> <BindingDB Target Chain Sequence>
MRPSGTAGAALLALLAALCPASRALEEKKVCQGTSNKLTQLGTFEDHFLSLQRMFNNCEVVLGNLEITYVQRNYDLSFLKTIQEVAGYVLIALNTVERIPLENLQIIRGNMYYENSYALAVLSNYDANKTGLKELPMRNLQEILHGAVRFSNNPALCNVESIQWRDIVSSDFLSNMSMDFQNHLGSCQKCDPSCPNGSCWGAGEENCQKLTKIICAQQCSGRCRGKSPSDCCHNQCAAGCTGPRESDCLVCRKFRDEATCKDTCPPLMLYNPTTYQMDVNPEGKYSFGATCVKKCPRNYVVTDHGSCVRACGADSYEMEEDGVRKCKKCEGPCRKVCNGIGIGEFKDSLSINATNIKHFKNCTSISGDLHILPVAFRGDSFTHTPPLDPQELDILKTVKEITGFLLIQAWPENRTDLHAFENLEIIRGRTKQHGQFSLAVVSLNITSLGLRSLKEISDGDVIISGNKNLCYANTINWKKLFGTSGQKTKIISNRGENSCKATGQVCHALCSPEGCWGPEPRDCVSCRNVSRGRECVDKCNLLEGEPREFVENSECIQCHPECLPQAMNITCTGRGPDNCIQCAHYIDGPHCVKTCPAGVMGENNTLVWKYADAGHVCHLCHPNCTYGCTGPGLEGCPTNGPKIPSIATGMVGALLLLLVVALGIGLFMRRRHIVRKRTLRRLLQERELVEPLTPSGEAPNQALLRILKETEFKKIKVLGSGAFGTVYKGLWIPEGEKVKIPVAIKELREATSPKANKEILDEAYVMASVDNPHVCRLLGICLTSTVQLITQLMPFGCLLDYVREHKDNIGSQYLLNWCVQIAKGMNYLEDRRLVHRDLAARNVLVKTPQHVKITDFGLAKLLGAEEKEYHAEGGKVPIKWMALESILHRIYTHQSDVWSYGVTVWELMTFGSKPYDGIPASEISSILEKGERLPQPPICTIDVYMIMVKCWMIDADSRPKFRELIIEFSKMARDPQRYLVIQGDERMHLPSPTDSNFYRALMDEEDMDDVVDADEYLIPQQGFFSSPSTSRTPLLSSLSATSNNSTVACIDRNGLQSCPIKEDSFLQRYSSDPTGALTEDSIDDTFLPVPEYINQSVPKRPAGSVQNPVYHNQPLNPAPSRDPHYQDPHSTAVGNPEYLNTVQPTCVNSTFDSPAHWAQKGSHQISLDNPDYQQDFFPKEAKPNGIFKGSTAENAEYLRVAPQSSEFIGA

> <PDB ID(s) of Target Chain>
1IVO,1M14,1M17,1MOX,1XKK,1Z9I,2GS2,2GS6,2ITW,2ITX,2ITY,2J5E,2J5F,2J6M,2RF9,2RGP,3B2V,3BEL,3GOP,3POZ,3QWQ,3VJO,3W2O,3W2P,3W2Q,3W2R,3W2S,3W32,3W33,4G5J,4I23,4JQ7,4JQ8,4JR3,4JRV,4KRO,4LI5,4RJ4,4RJ5,4RJ6,4RJ7,4RJ8,4TKS,4UIP,4UV7,4WKQ,4WRG,4ZAU,5C8K,5C8M,5C8N,5CAL,5CAN,5CAO,5CAP,5CAQ,5CAS,5CAU,5CAV,5EDP,5EDQ,5EDR,5EM5,5EM6,5EM7,5EM8,5FED,5GNK,5HCX,5HCY,5HCZ,5HIB,5HIC,5UGB,5WB7,5WB8,5Y25,6S89,6S8A

> <UniProt (SwissProt) Recommended Name of Target Chain>
Epidermal growth factor receptor

> <UniProt (SwissProt) Entry Name of Target Chain>
EGFR_HUMAN

> <UniProt (SwissProt) Primary ID of Target Chain>
P00533

> <UniProt (SwissProt) Secondary ID(s) of Target Chain>
O00688,O00732,P06268,Q14225,Q68GS5,Q92795,Q9BZS2,Q9GZX1,Q9H2C9,Q9H3C9,Q9UMD7,Q9UMD8,Q9UMG5

> <UniProt (SwissProt) Alternative ID(s) of Target Chain>


> <UniProt (TrEMBL) Submitted Name of Target Chain>


> <UniProt (TrEMBL) Entry Name of Target Chain>


> <UniProt (TrEMBL) Primary ID of Target Chain>


> <UniProt (TrEMBL) Secondary ID(s) of Target Chain>


> <UniProt (TrEMBL) Alternative ID(s) of Target Chain>


> <training label>
6.04576

> <i_lp_mmshare_version>
54117

> <s_epik_input>
W0NIM11PYyhbY0hdMSljKE9bQ0gzXSlbY0hdYyhjMTIpbltjSF1uYzJbTkhdYzNbY0hdW2NIXVtjSF1jKENsKVtjSF0z

> <s_epik_cmdline>
J2VwaWtfcHl0aG9uJywgJy1waHQnLCAnMC4xJywgJy1waCcsICc3LjQnLCAnLXRuJywgJzgnLCAnLW1hJywgJzIwMCcsICctaW1hZScsICc8aW5maWxlLm1hZT4nLCAnLW9tYWUnLCAnPG91dGZpbGUubWFlPic=

> <r_lp_tautomer_probability>
1

> <r_epik_Ionization_Penalty>
  0.0006

> <r_epik_Ionization_Penalty_Charging>
  0.0000

> <r_epik_Ionization_Penalty_Neutral>
  0.0006

> <r_epik_State_Penalty>
  0.0000

> <r_epik_Charging_Adjusted_Penalty>
0

> <i_epik_Tot_Q>
0

> <i_epik_Tot_abs_Q>
0

> <i_f3d_flags>
0

> <s_lp_Force_Field>
OPLS_2005

> <r_lp_Energy>
20.232591

> <b_lp_Chiralities_Consistent>
1

> <s_lp_Variant>
BindingDB_3532_mol_1-1

> <s_i_glide_gridfile>
struct_1_site_1

> <i_i_glide_lignum>
71

> <i_i_glide_rotatable_bonds>
4

> <r_i_docking_score>
-8.03278749452356

> <r_i_glide_ligand_efficiency>
-0.365126704296526

> <r_i_glide_ligand_efficiency_sa>
-1.0230993850573

> <r_i_glide_ligand_efficiency_ln>
-1.96350626670459

> <r_i_glide_gscore>
-8.03278749452356

> <r_i_glide_lipo>
-2.92667132617753

> <r_i_glide_hbond>
-0.32

> <r_i_glide_metal>
0

> <r_i_glide_rewards>
-2.4189824910047

> <r_i_glide_evdw>
-39.036018371582

> <r_i_glide_ecoul>
-5.25728178024292

> <r_i_glide_erotb>
0.373259508274203

> <r_i_glide_esite>
0

> <r_i_glide_emodel>
-46.8936187802888

> <r_i_glide_energy>
-44.293300151825

> <r_i_glide_einternal>
0.599615335464478

> <i_i_glide_confnum>
4

> <i_i_glide_posenum>
130

> <r_i_glide_eff_state_penalty>
0

> <PMID>
8879541

> <Temp C>
22

> <IUPHAR_GRAC ID of Ligand>
4862

> <r_glide_shape_similarity>
0.798866093158722

> <pH>
7.6

> <ChEBI ID of Ligand>
75404

> <s_m_subgroup_title>
505 training

> <s_m_subgroupid>
pocket_pv

> <b_m_subgroup_collapsed>
0

$$$$
BindingDB_50291107_mol_1
                    3D
 Schrodinger Suite 2021-2.
 39 41  0  0  1  0            999 V2000
   22.0812   -0.2224   53.4106 C   0  0  0  0  0  0
   23.4415   -0.0849   53.8059 C   0  0  0  0  0  0
   24.3059    0.9198   53.2928 N   0  0  0  0  0  0
   21.2749   -1.1081   54.1571 C   0  0  0  0  0  0
   21.5152    0.4550   52.3105 C   0  0  0  0  0  0
   23.9302   -0.8658   54.7900 N   0  0  0  0  0  0
   25.7245    0.9742   53.3335 C   0  0  0  0  0  0
   19.9064   -1.1992   53.8491 C   0  0  0  0  0  0
   20.1384    0.4111   52.0493 C   0  0  0  0  0  0
   19.3225   -0.4064   52.8376 C   0  0  0  0  0  0
   21.8038   -1.8550   55.1398 N   0  0  0  0  0  0
   26.5066   -0.1990   53.3338 C   0  0  0  0  0  0
   23.0960   -1.6997   55.3914 C   0  0  0  0  0  0
   27.9101   -0.1423   53.3745 C   0  0  0  0  0  0
   19.5346    1.1250   51.0421 O   0  0  0  0  0  0
   17.9836   -0.3965   52.5236 O   0  0  0  0  0  0
   28.8398   -1.5853   53.3745 Cl  0  0  0  0  0  0
   23.6925    2.2390   53.1144 C   0  0  0  0  0  0
   26.4324    2.2070   53.3280 C   0  0  0  0  0  0
   27.8259    2.2657   53.3728 C   0  0  0  0  0  0
   28.5707    1.0879   53.4021 C   0  0  0  0  0  0
   17.0949   -1.1283   53.3380 C   0  0  0  0  0  0
   20.3372    1.6343   49.9941 C   0  0  0  0  0  0
   22.1475    1.0338   51.6593 H   0  0  0  0  0  0
   19.3035   -1.8640   54.4479 H   0  0  0  0  0  0
   26.0358   -1.1692   53.2987 H   0  0  0  0  0  0
   23.5116   -2.3153   56.1748 H   0  0  0  0  0  0
   22.6380    2.2895   53.3722 H   0  0  0  0  0  0
   24.1115    2.9902   53.7761 H   0  0  0  0  0  0
   23.8149    2.5856   52.0864 H   0  0  0  0  0  0
   25.9725    3.1802   53.2759 H   0  0  0  0  0  0
   28.3232    3.2245   53.3759 H   0  0  0  0  0  0
   29.6517    1.1307   53.4313 H   0  0  0  0  0  0
   16.0697   -0.9149   53.0415 H   0  0  0  0  0  0
   17.2554   -2.2011   53.2234 H   0  0  0  0  0  0
   17.1938   -0.8657   54.3914 H   0  0  0  0  0  0
   19.6935    2.0362   49.2103 H   0  0  0  0  0  0
   20.9789    2.4453   50.3414 H   0  0  0  0  0  0
   20.9530    0.8528   49.5457 H   0  0  0  0  0  0
  1  2  2  0  0  0
  1  4  1  0  0  0
  1  5  1  0  0  0
  2  3  1  0  0  0
  2  6  1  0  0  0
  3  7  1  0  0  0
  3 18  1  0  0  0
  4  8  1  0  0  0
  4 11  2  0  0  0
  5  9  2  0  0  0
  5 24  1  0  0  0
  6 13  2  0  0  0
  7 12  2  0  0  0
  7 19  1  0  0  0
  8 10  2  0  0  0
  8 25  1  0  0  0
  9 10  1  0  0  0
  9 15  1  0  0  0
 10 16  1  0  0  0
 11 13  1  0  0  0
 12 14  1  0  0  0
 12 26  1  0  0  0
 13 27  1  0  0  0
 14 17  1  0  0  0
 14 21  2  0  0  0
 15 23  1  0  0  0
 16 22  1  0  0  0
 18 28  1  0  0  0
 18 29  1  0  0  0
 18 30  1  0  0  0
 19 20  2  0  0  0
 19 31  1  0  0  0
 20 21  1  0  0  0
 20 32  1  0  0  0
 21 33  1  0  0  0
 22 34  1  0  0  0
 22 35  1  0  0  0
 22 36  1  0  0  0
 23 37  1  0  0  0
 23 38  1  0  0  0
 23 39  1  0  0  0
M  END
> <s_m_entry_id>
235

> <s_m_entry_name>
pocket_pv.46

> <s_m_Source_Path>
/home/bortolaa/Project/GT/mario-master/docking/set505protein_struct_1_site_1_set505ligs_train

> <s_m_Source_File>
pocket_pv.maegz

> <i_m_Source_File_Index>
46

> <From>
www.bindingDB.org

> <BindingDB Reactant_set_id>
50486145

> <Ligand InChI>
InChI=1S/C17H16ClN3O2/c1-21(12-6-4-5-11(18)7-12)17-13-8-15(22-2)16(23-3)9-14(13)19-10-20-17/h4-10H,1-3H3

> <Ligand InChI Key>
PTUPCFNKXDILSA-UHFFFAOYSA-N

> <BindingDB MonomerID>
50291107

> <BindingDB Ligand Name>
(3-Chloro-phenyl)-(6,7-dimethoxy-quinazolin-4-yl)-methyl-amine; hydrochloride::CHEMBL553908

> <Target Name Assigned by Curator or DataSource>
Epidermal growth factor receptor

> <Target Source Organism According to Curator or DataSource>
Homo sapiens

> <Ki (nM)>


> <Kd (nM)>


> <EC50 (nM)>


> <kon (M-1-s-1)>


> <koff (s-1)>


> <pH>


> <Temp C>


> <Curation/DataSource>
ChEMBL

> <Article DOI>
10.1016/S0960-894X(97)00035-8

> <PMID>


> <PubChem AID>


> <Patent Number>


> <Authors>
Myers, MR; Setzer, NN; Spada, AP; Persons, PE; Ly, CQ; Maguire, MP; Zulli, AL; Cheney, DL; Zilberstein, A; Johnson, SE; Franks, CF; Mitchell, KJ

> <Institution>
TBA

> <Link to Ligand in BindingDB>
http://www.bindingdb.org/bind/chemsearch/marvin/MolStructure.jsp?monomerid=50291107

> <Link to Ligand-Target Pair in BindingDB>
http://www.bindingdb.org/jsp/dbsearch/PrimarySearch_ki.jsp?energyterm=kJ/mole&tag=r21&monomerid=50291107&enzyme=Epidermal+growth+factor+receptor&column=ki&startPg=0&Increment=50&submit=Search

> <Ligand HET ID in PDB>


> <PDB ID(s) for Ligand-Target Complex>


> <PubChem CID>
18770784

> <PubChem SID>
104132659

> <ChEBI ID of Ligand>


> <ChEMBL ID of Ligand>
CHEMBL553908

> <DrugBank ID of Ligand>


> <IUPHAR_GRAC ID of Ligand>


> <KEGG ID of Ligand>


> <ZINC ID of Ligand>
ZINC03815273

> <Number of Protein Chains in Target (>
1

> <BindingDB Target Chain Sequence>
MRPSGTAGAALLALLAALCPASRALEEKKVCQGTSNKLTQLGTFEDHFLSLQRMFNNCEVVLGNLEITYVQRNYDLSFLKTIQEVAGYVLIALNTVERIPLENLQIIRGNMYYENSYALAVLSNYDANKTGLKELPMRNLQEILHGAVRFSNNPALCNVESIQWRDIVSSDFLSNMSMDFQNHLGSCQKCDPSCPNGSCWGAGEENCQKLTKIICAQQCSGRCRGKSPSDCCHNQCAAGCTGPRESDCLVCRKFRDEATCKDTCPPLMLYNPTTYQMDVNPEGKYSFGATCVKKCPRNYVVTDHGSCVRACGADSYEMEEDGVRKCKKCEGPCRKVCNGIGIGEFKDSLSINATNIKHFKNCTSISGDLHILPVAFRGDSFTHTPPLDPQELDILKTVKEITGFLLIQAWPENRTDLHAFENLEIIRGRTKQHGQFSLAVVSLNITSLGLRSLKEISDGDVIISGNKNLCYANTINWKKLFGTSGQKTKIISNRGENSCKATGQVCHALCSPEGCWGPEPRDCVSCRNVSRGRECVDKCNLLEGEPREFVENSECIQCHPECLPQAMNITCTGRGPDNCIQCAHYIDGPHCVKTCPAGVMGENNTLVWKYADAGHVCHLCHPNCTYGCTGPGLEGCPTNGPKIPSIATGMVGALLLLLVVALGIGLFMRRRHIVRKRTLRRLLQERELVEPLTPSGEAPNQALLRILKETEFKKIKVLGSGAFGTVYKGLWIPEGEKVKIPVAIKELREATSPKANKEILDEAYVMASVDNPHVCRLLGICLTSTVQLITQLMPFGCLLDYVREHKDNIGSQYLLNWCVQIAKGMNYLEDRRLVHRDLAARNVLVKTPQHVKITDFGLAKLLGAEEKEYHAEGGKVPIKWMALESILHRIYTHQSDVWSYGVTVWELMTFGSKPYDGIPASEISSILEKGERLPQPPICTIDVYMIMVKCWMIDADSRPKFRELIIEFSKMARDPQRYLVIQGDERMHLPSPTDSNFYRALMDEEDMDDVVDADEYLIPQQGFFSSPSTSRTPLLSSLSATSNNSTVACIDRNGLQSCPIKEDSFLQRYSSDPTGALTEDSIDDTFLPVPEYINQSVPKRPAGSVQNPVYHNQPLNPAPSRDPHYQDPHSTAVGNPEYLNTVQPTCVNSTFDSPAHWAQKGSHQISLDNPDYQQDFFPKEAKPNGIFKGSTAENAEYLRVAPQSSEFIGA

> <PDB ID(s) of Target Chain>
1IVO,1M14,1M17,1MOX,1XKK,1Z9I,2GS2,2GS6,2ITW,2ITX,2ITY,2J5E,2J5F,2J6M,2RF9,2RGP,3B2V,3BEL,3GOP,3POZ,3QWQ,3VJO,3W2O,3W2P,3W2Q,3W2R,3W2S,3W32,3W33,4G5J,4I23,4JQ7,4JQ8,4JR3,4JRV,4KRO,4LI5,4RJ4,4RJ5,4RJ6,4RJ7,4RJ8,4TKS,4UIP,4UV7,4WKQ,4WRG,4ZAU,5C8K,5C8M,5C8N,5CAL,5CAN,5CAO,5CAP,5CAQ,5CAS,5CAU,5CAV,5EDP,5EDQ,5EDR,5EM5,5EM6,5EM7,5EM8,5FED,5GNK,5HCX,5HCY,5HCZ,5HIB,5HIC,5UGB,5WB7,5WB8,5Y25,6S89,6S8A

> <UniProt (SwissProt) Recommended Name of Target Chain>
Epidermal growth factor receptor

> <UniProt (SwissProt) Entry Name of Target Chain>
EGFR_HUMAN

> <UniProt (SwissProt) Primary ID of Target Chain>
P00533

> <UniProt (SwissProt) Secondary ID(s) of Target Chain>
O00688,O00732,P06268,Q14225,Q68GS5,Q92795,Q9BZS2,Q9GZX1,Q9H2C9,Q9H3C9,Q9UMD7,Q9UMD8,Q9UMG5

> <UniProt (SwissProt) Alternative ID(s) of Target Chain>


> <UniProt (TrEMBL) Submitted Name of Target Chain>


> <UniProt (TrEMBL) Entry Name of Target Chain>


> <UniProt (TrEMBL) Primary ID of Target Chain>


> <UniProt (TrEMBL) Secondary ID(s) of Target Chain>


> <UniProt (TrEMBL) Alternative ID(s) of Target Chain>


> <training label>
7

> <i_lp_mmshare_version>
54117

> <s_epik_input>
W0NIM11PYyhbY0hdMSljKE9bQ0gzXSlbY0hdYyhjMTIpbltjSF1uYzJOKFtDSDNdKWMzW2NIXWMoQ2wpW2NIXVtjSF1bY0hdMw==

> <s_epik_cmdline>
J2VwaWtfcHl0aG9uJywgJy1waHQnLCAnMC4xJywgJy1waCcsICc3LjQnLCAnLXRuJywgJzgnLCAnLW1hJywgJzIwMCcsICctaW1hZScsICc8aW5maWxlLm1hZT4nLCAnLW9tYWUnLCAnPG91dGZpbGUubWFlPic=

> <r_lp_tautomer_probability>
1

> <r_epik_Ionization_Penalty>
  0.0006

> <r_epik_Ionization_Penalty_Charging>
  0.0000

> <r_epik_Ionization_Penalty_Neutral>
  0.0006

> <r_epik_State_Penalty>
  0.0000

> <r_epik_Charging_Adjusted_Penalty>
0

> <i_epik_Tot_Q>
0

> <i_epik_Tot_abs_Q>
0

> <i_f3d_flags>
0

> <s_lp_Force_Field>
OPLS_2005

> <r_lp_Energy>
21.66008

> <b_lp_Chiralities_Consistent>
1

> <s_lp_Variant>
BindingDB_50291107_mol_1-1

> <s_i_glide_gridfile>
struct_1_site_1

> <i_i_glide_lignum>
162

> <i_i_glide_rotatable_bonds>
4

> <r_i_docking_score>
-8.02179220126598

> <r_i_glide_ligand_efficiency>
-0.348773573968086

> <r_i_glide_ligand_efficiency_sa>
-0.991865649415995

> <r_i_glide_ligand_efficiency_ln>
-1.93974209185629

> <r_i_glide_gscore>
-8.02179220126598

> <r_i_glide_lipo>
-2.96413811469306

> <r_i_glide_hbond>
-0.32

> <r_i_glide_metal>
0

> <r_i_glide_rewards>
-2.35688343270226

> <r_i_glide_evdw>
-38.7934455871582

> <r_i_glide_ecoul>
-5.24545478820801

> <r_i_glide_erotb>
0.345719843718447

> <r_i_glide_esite>
0

> <r_i_glide_emodel>
-42.3926216852682

> <r_i_glide_energy>
-44.0389003753662

> <r_i_glide_einternal>
5.1731333732605

> <i_i_glide_confnum>
5

> <i_i_glide_posenum>
157

> <r_i_glide_eff_state_penalty>
0

> <IC50 (nM)>
100

> <r_glide_shape_similarity>
0.793255507946014

> <s_m_subgroup_title>
505 training

> <s_m_subgroupid>
pocket_pv

> <b_m_subgroup_collapsed>
0

$$$$
BindingDB_50223083_mol_1
                    3D
 Schrodinger Suite 2021-2.
 42 44  0  0  1  0            999 V2000
   20.1221    0.5013   52.1278 C   0  0  0  0  0  0
   19.3153   -0.4129   52.8471 C   0  0  0  0  0  0
   19.9004   -1.2157   53.8420 C   0  0  0  0  0  0
   21.4714    0.6127   52.4800 C   0  0  0  0  0  0
   22.0308   -0.1943   53.4919 C   0  0  0  0  0  0
   21.2544   -1.1282   54.1823 C   0  0  0  0  0  0
   21.7991   -1.9008   55.1431 N   0  0  0  0  0  0
   23.0919   -1.7330   55.4068 C   0  0  0  0  0  0
   23.9186   -0.8876   54.8124 N   0  0  0  0  0  0
   23.3751   -0.1158   53.8592 C   0  0  0  0  0  0
   24.0985    0.8688   53.2301 N   0  0  0  0  0  0
   25.4162    1.2267   53.2706 C   0  0  0  0  0  0
   26.4560    0.3864   53.6484 C   0  0  0  0  0  0
   27.7577    0.8735   53.5515 C   0  0  0  0  0  0
   28.0439    2.1533   53.0786 C   0  0  0  0  0  0
   26.9762    2.9399   52.6416 C   0  0  0  0  0  0
   25.6690    2.4984   52.7726 C   0  0  0  0  0  0
   28.7890   -0.0564   53.7919 C   0  0  0  0  0  0
   29.3924   -1.0981   53.7756 C   0  0  0  0  0  0
   19.6068    1.2737   51.1159 O   0  0  0  0  0  0
   20.4101    1.4655   49.9598 C   0  0  0  0  0  0
   17.9695   -0.6276   52.6575 O   0  0  0  0  0  0
   17.2083    0.2443   51.8465 C   0  0  0  0  0  0
   29.8205   -2.4391   53.5157 C   0  0  0  0  0  0
   28.7042   -3.2715   53.3743 O   0  0  0  0  0  0
   19.2745   -1.9133   54.3789 H   0  0  0  0  0  0
   22.0675    1.3299   51.9417 H   0  0  0  0  0  0
   23.5130   -2.3634   56.1748 H   0  0  0  0  0  0
   23.5234    1.5159   52.7238 H   0  0  0  0  0  0
   26.2747   -0.6314   53.9613 H   0  0  0  0  0  0
   29.0623    2.5025   52.9767 H   0  0  0  0  0  0
   27.0992    3.9096   52.1842 H   0  0  0  0  0  0
   24.8682    3.1440   52.4415 H   0  0  0  0  0  0
   19.7725    1.7533   49.1223 H   0  0  0  0  0  0
   21.1352    2.2650   50.1096 H   0  0  0  0  0  0
   20.9383    0.5542   49.6747 H   0  0  0  0  0  0
   17.4611    0.1394   50.7940 H   0  0  0  0  0  0
   16.1581   -0.0260   51.9382 H   0  0  0  0  0  0
   17.3052    1.2840   52.1557 H   0  0  0  0  0  0
   30.6131   -2.7800   54.1747 H   0  0  0  0  0  0
   30.2759   -2.2821   52.5737 H   0  0  0  0  0  0
   28.3605   -3.4702   54.2350 H   0  0  0  0  0  0
  1  2  2  0  0  0
  1  4  1  0  0  0
  1 20  1  0  0  0
  2  3  1  0  0  0
  2 22  1  0  0  0
  3  6  2  0  0  0
  3 26  1  0  0  0
  4  5  2  0  0  0
  4 27  1  0  0  0
  5  6  1  0  0  0
  5 10  1  0  0  0
  6  7  1  0  0  0
  7  8  2  0  0  0
  8  9  1  0  0  0
  8 28  1  0  0  0
  9 10  2  0  0  0
 10 11  1  0  0  0
 11 12  1  0  0  0
 11 29  1  0  0  0
 12 13  2  0  0  0
 12 17  1  0  0  0
 13 14  1  0  0  0
 13 30  1  0  0  0
 14 15  2  0  0  0
 14 18  1  0  0  0
 15 16  1  0  0  0
 15 31  1  0  0  0
 16 17  2  0  0  0
 16 32  1  0  0  0
 17 33  1  0  0  0
 18 19  3  0  0  0
 19 24  1  0  0  0
 20 21  1  0  0  0
 21 34  1  0  0  0
 21 35  1  0  0  0
 21 36  1  0  0  0
 22 23  1  0  0  0
 23 37  1  0  0  0
 23 38  1  0  0  0
 23 39  1  0  0  0
 24 25  1  0  0  0
 24 40  1  0  0  0
 24 41  1  0  0  0
 25 42  1  0  0  0
M  END
> <s_m_entry_id>
236

> <s_m_entry_name>
pocket_pv.47

> <s_m_Source_Path>
/home/bortolaa/Project/GT/mario-master/docking/set505protein_struct_1_site_1_set505ligs_train

> <s_m_Source_File>
pocket_pv.maegz

> <i_m_Source_File_Index>
47

> <From>
www.bindingDB.org

> <BindingDB Reactant_set_id>
50401533

> <Ligand InChI>
InChI=1S/C19H17N3O3/c1-24-17-10-15-16(11-18(17)25-2)20-12-21-19(15)22-14-7-3-5-13(9-14)6-4-8-23/h3,5,7,9-12,23H,8H2,1-2H3,(H,20,21,22)

> <Ligand InChI Key>
WIBRRSMFZMVFSE-UHFFFAOYSA-N

> <BindingDB MonomerID>
50223083

> <BindingDB Ligand Name>
3-(3-(6,7-dimethoxyquinazolin-4-ylamino)phenyl)prop-2-yn-1-ol::CHEMBL399736

> <Target Name Assigned by Curator or DataSource>
Epidermal growth factor receptor

> <Target Source Organism According to Curator or DataSource>
Homo sapiens

> <Ki (nM)>


> <IC50 (nM)>
1644

> <Kd (nM)>


> <EC50 (nM)>


> <kon (M-1-s-1)>


> <koff (s-1)>


> <pH>


> <Temp C>


> <Curation/DataSource>
ChEMBL

> <Article DOI>
10.1016/j.bmcl.2007.08.061

> <PubChem AID>


> <Patent Number>


> <Authors>
Liu, LT; Yuan, TT; Liu, HH; Chen, SF; Wu, YT

> <Institution>
Development Center for Biotechnology

> <Link to Ligand in BindingDB>
http://www.bindingdb.org/bind/chemsearch/marvin/MolStructure.jsp?monomerid=50223083

> <Link to Ligand-Target Pair in BindingDB>
http://www.bindingdb.org/jsp/dbsearch/PrimarySearch_ki.jsp?energyterm=kJ/mole&tag=r21&monomerid=50223083&enzyme=Epidermal+growth+factor+receptor&column=ki&startPg=0&Increment=50&submit=Search

> <Ligand HET ID in PDB>


> <PDB ID(s) for Ligand-Target Complex>


> <PubChem CID>
15520888

> <PubChem SID>
104095247

> <ChEBI ID of Ligand>


> <ChEMBL ID of Ligand>
CHEMBL399736

> <DrugBank ID of Ligand>


> <IUPHAR_GRAC ID of Ligand>


> <KEGG ID of Ligand>


> <ZINC ID of Ligand>
ZINC01892804

> <Number of Protein Chains in Target (>
1

> <BindingDB Target Chain Sequence>
MRPSGTAGAALLALLAALCPASRALEEKKVCQGTSNKLTQLGTFEDHFLSLQRMFNNCEVVLGNLEITYVQRNYDLSFLKTIQEVAGYVLIALNTVERIPLENLQIIRGNMYYENSYALAVLSNYDANKTGLKELPMRNLQEILHGAVRFSNNPALCNVESIQWRDIVSSDFLSNMSMDFQNHLGSCQKCDPSCPNGSCWGAGEENCQKLTKIICAQQCSGRCRGKSPSDCCHNQCAAGCTGPRESDCLVCRKFRDEATCKDTCPPLMLYNPTTYQMDVNPEGKYSFGATCVKKCPRNYVVTDHGSCVRACGADSYEMEEDGVRKCKKCEGPCRKVCNGIGIGEFKDSLSINATNIKHFKNCTSISGDLHILPVAFRGDSFTHTPPLDPQELDILKTVKEITGFLLIQAWPENRTDLHAFENLEIIRGRTKQHGQFSLAVVSLNITSLGLRSLKEISDGDVIISGNKNLCYANTINWKKLFGTSGQKTKIISNRGENSCKATGQVCHALCSPEGCWGPEPRDCVSCRNVSRGRECVDKCNLLEGEPREFVENSECIQCHPECLPQAMNITCTGRGPDNCIQCAHYIDGPHCVKTCPAGVMGENNTLVWKYADAGHVCHLCHPNCTYGCTGPGLEGCPTNGPKIPSIATGMVGALLLLLVVALGIGLFMRRRHIVRKRTLRRLLQERELVEPLTPSGEAPNQALLRILKETEFKKIKVLGSGAFGTVYKGLWIPEGEKVKIPVAIKELREATSPKANKEILDEAYVMASVDNPHVCRLLGICLTSTVQLITQLMPFGCLLDYVREHKDNIGSQYLLNWCVQIAKGMNYLEDRRLVHRDLAARNVLVKTPQHVKITDFGLAKLLGAEEKEYHAEGGKVPIKWMALESILHRIYTHQSDVWSYGVTVWELMTFGSKPYDGIPASEISSILEKGERLPQPPICTIDVYMIMVKCWMIDADSRPKFRELIIEFSKMARDPQRYLVIQGDERMHLPSPTDSNFYRALMDEEDMDDVVDADEYLIPQQGFFSSPSTSRTPLLSSLSATSNNSTVACIDRNGLQSCPIKEDSFLQRYSSDPTGALTEDSIDDTFLPVPEYINQSVPKRPAGSVQNPVYHNQPLNPAPSRDPHYQDPHSTAVGNPEYLNTVQPTCVNSTFDSPAHWAQKGSHQISLDNPDYQQDFFPKEAKPNGIFKGSTAENAEYLRVAPQSSEFIGA

> <PDB ID(s) of Target Chain>
1IVO,1M14,1M17,1MOX,1XKK,1Z9I,2GS2,2GS6,2ITW,2ITX,2ITY,2J5E,2J5F,2J6M,2RF9,2RGP,3B2V,3BEL,3GOP,3POZ,3QWQ,3VJO,3W2O,3W2P,3W2Q,3W2R,3W2S,3W32,3W33,4G5J,4I23,4JQ7,4JQ8,4JR3,4JRV,4KRO,4LI5,4RJ4,4RJ5,4RJ6,4RJ7,4RJ8,4TKS,4UIP,4UV7,4WKQ,4WRG,4ZAU,5C8K,5C8M,5C8N,5CAL,5CAN,5CAO,5CAP,5CAQ,5CAS,5CAU,5CAV,5EDP,5EDQ,5EDR,5EM5,5EM6,5EM7,5EM8,5FED,5GNK,5HCX,5HCY,5HCZ,5HIB,5HIC,5UGB,5WB7,5WB8,5Y25,6S89,6S8A

> <UniProt (SwissProt) Recommended Name of Target Chain>
Epidermal growth factor receptor

> <UniProt (SwissProt) Entry Name of Target Chain>
EGFR_HUMAN

> <UniProt (SwissProt) Primary ID of Target Chain>
P00533

> <UniProt (SwissProt) Secondary ID(s) of Target Chain>
O00688,O00732,P06268,Q14225,Q68GS5,Q92795,Q9BZS2,Q9GZX1,Q9H2C9,Q9H3C9,Q9UMD7,Q9UMD8,Q9UMG5

> <UniProt (SwissProt) Alternative ID(s) of Target Chain>


> <UniProt (TrEMBL) Submitted Name of Target Chain>


> <UniProt (TrEMBL) Entry Name of Target Chain>


> <UniProt (TrEMBL) Primary ID of Target Chain>


> <UniProt (TrEMBL) Secondary ID(s) of Target Chain>


> <UniProt (TrEMBL) Alternative ID(s) of Target Chain>


> <training label>
5.7841

> <i_lp_mmshare_version>
54117

> <s_epik_input>
W0NIM11PYyhbY0hdMSljKE9bQ0gzXSlbY0hdYyhjMTIpbltjSF1uYzJbTkhdYzNbY0hdYyhbY0hdW2NIXVtjSF0zKUMjQ1tDSDJdW09IXQ==

> <s_epik_cmdline>
J2VwaWtfcHl0aG9uJywgJy1waHQnLCAnMC4xJywgJy1waCcsICc3LjQnLCAnLXRuJywgJzgnLCAnLW1hJywgJzIwMCcsICctaW1hZScsICc8aW5maWxlLm1hZT4nLCAnLW9tYWUnLCAnPG91dGZpbGUubWFlPic=

> <r_lp_tautomer_probability>
1

> <r_epik_Ionization_Penalty>
  0.0006

> <r_epik_Ionization_Penalty_Charging>
  0.0000

> <r_epik_Ionization_Penalty_Neutral>
  0.0006

> <r_epik_State_Penalty>
  0.0000

> <r_epik_Charging_Adjusted_Penalty>
0

> <i_epik_Tot_Q>
0

> <i_epik_Tot_abs_Q>
0

> <i_f3d_flags>
0

> <s_lp_Force_Field>
OPLS_2005

> <r_lp_Energy>
20.604861

> <b_lp_Chiralities_Consistent>
1

> <s_lp_Variant>
BindingDB_50223083_mol_1-1

> <s_i_glide_gridfile>
struct_1_site_1

> <i_i_glide_lignum>
58

> <i_i_glide_rotatable_bonds>
7

> <r_i_docking_score>
-8.02083009665734

> <r_i_glide_ligand_efficiency>
-0.320833203866294

> <r_i_glide_ligand_efficiency_sa>
-0.938121978106141

> <r_i_glide_ligand_efficiency_ln>
-1.90117709778953

> <r_i_glide_gscore>
-8.02083009665734

> <r_i_glide_lipo>
-3.10233988012299

> <r_i_glide_hbond>
-0.608

> <r_i_glide_metal>
0

> <r_i_glide_rewards>
-2.28607275543658

> <r_i_glide_evdw>
-32.5053291320801

> <r_i_glide_ecoul>
-7.135901927948

> <r_i_glide_erotb>
0.671234284698438

> <r_i_glide_esite>
0

> <r_i_glide_emodel>
-41.4057096036305

> <r_i_glide_energy>
-39.6412310600281

> <r_i_glide_einternal>
8.33309841156006

> <i_i_glide_confnum>
3

> <i_i_glide_posenum>
288

> <r_i_glide_eff_state_penalty>
0

> <PMID>
17889528

> <r_glide_shape_similarity>
0.828966677188873

> <s_m_subgroup_title>
505 training

> <s_m_subgroupid>
pocket_pv

> <b_m_subgroup_collapsed>
0

$$$$
/home/bortolaa/Project/GT/mario-master/ligands/set505ligs_train.sdf:221
                    3D
 Schrodinger Suite 2021-2.
 65 68  0  0  1  0            999 V2000
   20.1657    1.6612   49.9132 C   0  0  0  0  0  0
   19.1614    2.2166   49.0277 C   0  0  0  0  0  0
   18.8428    3.5224   49.1050 C   0  0  0  0  0  0
   17.7792    4.1898   48.2503 C   0  0  0  0  0  0
   21.3641    1.5696   49.6418 O   0  0  0  0  0  0
   19.5966    1.2653   51.0701 N   0  0  0  0  0  0
   16.6471    4.6682   49.0962 N   0  3  0  0  0  0
   15.2917    4.4036   48.5282 C   0  0  0  0  0  0
   14.2456    5.3570   49.1467 C   0  0  0  0  0  0
   14.8879    2.9186   48.7186 C   0  0  0  0  0  0
   21.7995   -1.9049   55.1451 N   0  0  0  0  0  0
   23.0974   -1.7501   55.4167 C   0  0  0  0  0  0
   23.9423   -0.9038   54.8317 N   0  0  0  0  0  0
   23.4407   -0.0994   53.8712 C   0  0  0  0  0  0
   22.0749   -0.1701   53.5051 C   0  0  0  0  0  0
   21.5297    0.6475   52.4921 C   0  0  0  0  0  0
   20.1767    0.5137   52.1264 C   0  0  0  0  0  0
   19.3370   -0.3808   52.8231 C   0  0  0  0  0  0
   19.8908   -1.2035   53.8409 C   0  0  0  0  0  0
   21.2628   -1.1170   54.1851 C   0  0  0  0  0  0
   18.0175   -0.3847   52.4119 O   0  0  0  0  0  0
   15.5003   -2.1991   52.0621 O   0  0  0  0  0  0
   16.6090   -2.2757   52.9745 C   0  0  0  0  0  0
   16.9962   -0.8244   53.2970 C   0  0  2  0  0  0
   15.7170   -0.0539   52.9674 C   0  0  0  0  0  0
   15.1768   -0.8328   51.7749 C   0  0  0  0  0  0
   24.2876    0.8519   53.2755 N   0  0  0  0  0  0
   25.6839    0.9529   53.3421 C   0  0  0  0  0  0
   26.5136   -0.1910   53.3329 C   0  0  0  0  0  0
   27.9162   -0.0521   53.3823 C   0  0  0  0  0  0
   28.5023    1.2299   53.4397 C   0  0  0  0  0  0
   27.6771    2.3716   53.4283 C   0  0  0  0  0  0
   26.2744    2.2356   53.3712 C   0  0  0  0  0  0
   28.7437   -1.2440   53.3671 C   0  0  0  0  0  0
   29.3734   -2.2897   53.3576 C   0  0  0  0  0  0
   18.6682    1.5681   48.3182 H   0  0  0  0  0  0
   19.3515    4.1616   49.8145 H   0  0  0  0  0  0
   18.2119    5.0338   47.7115 H   0  0  0  0  0  0
   17.4365    3.4789   47.4957 H   0  0  0  0  0  0
   18.5873    1.3279   51.1107 H   0  0  0  0  0  0
   16.6960    4.2170   50.0043 H   0  0  0  0  0  0
   15.3257    4.6218   47.4590 H   0  0  0  0  0  0
   13.2528    5.1834   48.7279 H   0  0  0  0  0  0
   14.1812    5.2334   50.2277 H   0  0  0  0  0  0
   14.5041    6.3984   48.9499 H   0  0  0  0  0  0
   13.9031    2.7284   48.2913 H   0  0  0  0  0  0
   15.5865    2.2371   48.2316 H   0  0  0  0  0  0
   14.8447    2.6509   49.7751 H   0  0  0  0  0  0
   23.5110   -2.3983   56.1740 H   0  0  0  0  0  0
   22.1509    1.3573   51.9694 H   0  0  0  0  0  0
   19.2702   -1.9089   54.3714 H   0  0  0  0  0  0
   17.4459   -2.8463   52.5764 H   0  0  0  0  0  0
   16.2882   -2.8011   53.8685 H   0  0  0  0  0  0
   17.2828   -0.6855   54.3389 H   0  0  0  0  0  0
   15.0178   -0.1197   53.8011 H   0  0  0  0  0  0
   15.8863    0.9989   52.7455 H   0  0  0  0  0  0
   14.1058   -0.6942   51.6281 H   0  0  0  0  0  0
   15.6892   -0.5325   50.8599 H   0  0  0  0  0  0
   23.8205    1.6275   52.8300 H   0  0  0  0  0  0
   26.0785   -1.1790   53.2795 H   0  0  0  0  0  0
   29.5783    1.3445   53.4796 H   0  0  0  0  0  0
   28.1170    3.3580   53.4627 H   0  0  0  0  0  0
   25.6624    3.1267   53.3637 H   0  0  0  0  0  0
   29.8877   -3.2240   53.3618 H   0  0  0  0  0  0
   16.7492    5.6740   49.2504 H   0  0  0  0  0  0
  1  2  1  0  0  0
  1  5  2  0  0  0
  1  6  1  0  0  0
  2  3  2  0  0  0
  2 36  1  0  0  0
  3  4  1  0  0  0
  3 37  1  0  0  0
  4  7  1  0  0  0
  4 38  1  0  0  0
  4 39  1  0  0  0
  6 17  1  0  0  0
  6 40  1  0  0  0
  7  8  1  0  0  0
  7 41  1  0  0  0
  7 65  1  0  0  0
  8  9  1  0  0  0
  8 10  1  0  0  0
  8 42  1  0  0  0
  9 43  1  0  0  0
  9 44  1  0  0  0
  9 45  1  0  0  0
 10 46  1  0  0  0
 10 47  1  0  0  0
 10 48  1  0  0  0
 11 12  1  0  0  0
 11 20  2  0  0  0
 12 13  2  0  0  0
 12 49  1  0  0  0
 13 14  1  0  0  0
 14 15  2  0  0  0
 14 27  1  0  0  0
 15 16  1  0  0  0
 15 20  1  0  0  0
 16 17  2  0  0  0
 16 50  1  0  0  0
 17 18  1  0  0  0
 18 19  2  0  0  0
 18 21  1  0  0  0
 19 20  1  0  0  0
 19 51  1  0  0  0
 21 24  1  0  0  0
 22 23  1  0  0  0
 22 26  1  0  0  0
 23 24  1  0  0  0
 23 52  1  0  0  0
 23 53  1  0  0  0
 24 25  1  0  0  0
 24 54  1  0  0  0
 25 26  1  0  0  0
 25 55  1  0  0  0
 25 56  1  0  0  0
 26 57  1  0  0  0
 26 58  1  0  0  0
 27 28  1  0  0  0
 27 59  1  0  0  0
 28 29  1  0  0  0
 28 33  2  0  0  0
 29 30  2  0  0  0
 29 60  1  0  0  0
 30 31  1  0  0  0
 30 34  1  0  0  0
 31 32  2  0  0  0
 31 61  1  0  0  0
 32 33  1  0  0  0
 32 62  1  0  0  0
 33 63  1  0  0  0
 34 35  3  0  0  0
 35 64  1  0  0  0
M  CHG  1   7   1
M  END
> <s_m_entry_id>
237

> <s_m_entry_name>
pocket_pv.48

> <s_m_Source_Path>
/home/bortolaa/Project/GT/mario-master/docking/set505protein_struct_1_site_1_set505ligs_train

> <s_m_Source_File>
pocket_pv.maegz

> <i_m_Source_File_Index>
48

> <From>
www.bindingDB.org

> <BindingDB Reactant_set_id>
50419130

> <Ligand InChI>
InChI=1S/C27H29N5O3/c1-4-19-7-5-8-20(13-19)31-27-22-14-24(32-26(33)9-6-11-28-18(2)3)25(15-23(22)29-17-30-27)35-21-10-12-34-16-21/h1,5-9,13-15,17-18,21,28H,10-12,16H2,2-3H3,(H,32,33)(H,29,30,31)/b9-6+/t21-/m0/s1

> <Ligand InChI Key>
PMCYOYPVLDNCBF-JLXBBBJOSA-N

> <BindingDB MonomerID>
50123156

> <BindingDB Ligand Name>
CHEMBL3622679

> <Target Name Assigned by Curator or DataSource>
Epidermal growth factor receptor

> <Target Source Organism According to Curator or DataSource>
Homo sapiens

> <Ki (nM)>


> <Kd (nM)>


> <EC50 (nM)>


> <kon (M-1-s-1)>


> <koff (s-1)>


> <pH>


> <Temp C>


> <Curation/DataSource>
ChEMBL

> <Article DOI>
10.1016/j.ejmech.2015.08.026

> <PubChem AID>


> <Patent Number>


> <Authors>
Zhang, L; Yang, Y; Zhou, H; Zheng, Q; Li, Y; Zheng, S; Zhao, S; Chen, D; Fan, C

> <Institution>
Qilu Pharmaceutical Co, Ltd

> <Link to Ligand in BindingDB>
http://www.bindingdb.org/bind/chemsearch/marvin/MolStructure.jsp?monomerid=50123156

> <Link to Ligand-Target Pair in BindingDB>
http://www.bindingdb.org/jsp/dbsearch/PrimarySearch_ki.jsp?energyterm=kJ/mole&tag=r21&monomerid=50123156&enzyme=Epidermal+growth+factor+receptor&column=ki&startPg=0&Increment=50&submit=Search

> <Ligand HET ID in PDB>


> <PDB ID(s) for Ligand-Target Complex>


> <PubChem CID>
122191961

> <PubChem SID>
321901889

> <ChEBI ID of Ligand>


> <ChEMBL ID of Ligand>
CHEMBL3622679

> <DrugBank ID of Ligand>


> <IUPHAR_GRAC ID of Ligand>


> <KEGG ID of Ligand>


> <ZINC ID of Ligand>


> <Number of Protein Chains in Target (>
1

> <BindingDB Target Chain Sequence>
MRPSGTAGAALLALLAALCPASRALEEKKVCQGTSNKLTQLGTFEDHFLSLQRMFNNCEVVLGNLEITYVQRNYDLSFLKTIQEVAGYVLIALNTVERIPLENLQIIRGNMYYENSYALAVLSNYDANKTGLKELPMRNLQEILHGAVRFSNNPALCNVESIQWRDIVSSDFLSNMSMDFQNHLGSCQKCDPSCPNGSCWGAGEENCQKLTKIICAQQCSGRCRGKSPSDCCHNQCAAGCTGPRESDCLVCRKFRDEATCKDTCPPLMLYNPTTYQMDVNPEGKYSFGATCVKKCPRNYVVTDHGSCVRACGADSYEMEEDGVRKCKKCEGPCRKVCNGIGIGEFKDSLSINATNIKHFKNCTSISGDLHILPVAFRGDSFTHTPPLDPQELDILKTVKEITGFLLIQAWPENRTDLHAFENLEIIRGRTKQHGQFSLAVVSLNITSLGLRSLKEISDGDVIISGNKNLCYANTINWKKLFGTSGQKTKIISNRGENSCKATGQVCHALCSPEGCWGPEPRDCVSCRNVSRGRECVDKCNLLEGEPREFVENSECIQCHPECLPQAMNITCTGRGPDNCIQCAHYIDGPHCVKTCPAGVMGENNTLVWKYADAGHVCHLCHPNCTYGCTGPGLEGCPTNGPKIPSIATGMVGALLLLLVVALGIGLFMRRRHIVRKRTLRRLLQERELVEPLTPSGEAPNQALLRILKETEFKKIKVLGSGAFGTVYKGLWIPEGEKVKIPVAIKELREATSPKANKEILDEAYVMASVDNPHVCRLLGICLTSTVQLITQLMPFGCLLDYVREHKDNIGSQYLLNWCVQIAKGMNYLEDRRLVHRDLAARNVLVKTPQHVKITDFGLAKLLGAEEKEYHAEGGKVPIKWMALESILHRIYTHQSDVWSYGVTVWELMTFGSKPYDGIPASEISSILEKGERLPQPPICTIDVYMIMVKCWMIDADSRPKFRELIIEFSKMARDPQRYLVIQGDERMHLPSPTDSNFYRALMDEEDMDDVVDADEYLIPQQGFFSSPSTSRTPLLSSLSATSNNSTVACIDRNGLQSCPIKEDSFLQRYSSDPTGALTEDSIDDTFLPVPEYINQSVPKRPAGSVQNPVYHNQPLNPAPSRDPHYQDPHSTAVGNPEYLNTVQPTCVNSTFDSPAHWAQKGSHQISLDNPDYQQDFFPKEAKPNGIFKGSTAENAEYLRVAPQSSEFIGA

> <PDB ID(s) of Target Chain>
1IVO,1M14,1M17,1MOX,1XKK,1Z9I,2GS2,2GS6,2ITW,2ITX,2ITY,2J5E,2J5F,2J6M,2RF9,2RGP,3B2V,3BEL,3GOP,3POZ,3QWQ,3VJO,3W2O,3W2P,3W2Q,3W2R,3W2S,3W32,3W33,4G5J,4I23,4JQ7,4JQ8,4JR3,4JRV,4KRO,4LI5,4RJ4,4RJ5,4RJ6,4RJ7,4RJ8,4TKS,4UIP,4UV7,4WKQ,4WRG,4ZAU,5C8K,5C8M,5C8N,5CAL,5CAN,5CAO,5CAP,5CAQ,5CAS,5CAU,5CAV,5EDP,5EDQ,5EDR,5EM5,5EM6,5EM7,5EM8,5FED,5GNK,5HCX,5HCY,5HCZ,5HIB,5HIC,5UGB,5WB7,5WB8,5Y25,6S89,6S8A

> <UniProt (SwissProt) Recommended Name of Target Chain>
Epidermal growth factor receptor

> <UniProt (SwissProt) Entry Name of Target Chain>
EGFR_HUMAN

> <UniProt (SwissProt) Primary ID of Target Chain>
P00533

> <UniProt (SwissProt) Secondary ID(s) of Target Chain>
O00688,O00732,P06268,Q14225,Q68GS5,Q92795,Q9BZS2,Q9GZX1,Q9H2C9,Q9H3C9,Q9UMD7,Q9UMD8,Q9UMG5

> <UniProt (SwissProt) Alternative ID(s) of Target Chain>


> <UniProt (TrEMBL) Submitted Name of Target Chain>


> <UniProt (TrEMBL) Entry Name of Target Chain>


> <UniProt (TrEMBL) Primary ID of Target Chain>


> <UniProt (TrEMBL) Secondary ID(s) of Target Chain>


> <UniProt (TrEMBL) Alternative ID(s) of Target Chain>


> <training label>
8.19382

> <i_lp_mmshare_version>
54117

> <s_epik_input>
W0NIM11bQ0hdKFtDSDNdKVtOSF1bQ0gyXVxbQ0hdPVtDSF1cQyg9TylbTkhdYyhbY0hdMSljKE9bQ0BASF0yW0NIMl1PW0NIMl1bQ0gyXTIpW2NIXWMoYzEzKW5bY0hdbmMzW05IXWM0W2NIXWMoQyNbQ0hdKVtjSF1bY0hdW2NIXTQ=

> <s_epik_cmdline>
J2VwaWtfcHl0aG9uJywgJy1waHQnLCAnMC4xJywgJy1waCcsICc3LjQnLCAnLXRuJywgJzgnLCAnLW1hJywgJzIwMCcsICctaW1hZScsICc8aW5maWxlLm1hZT4nLCAnLW9tYWUnLCAnPG91dGZpbGUubWFlPic=

> <r_lp_tautomer_probability>
0.999978000241998

> <r_epik_Ionization_Penalty>
  0.0357

> <r_epik_Ionization_Penalty_Charging>
  0.0353

> <r_epik_Ionization_Penalty_Neutral>
  0.0005

> <r_epik_State_Penalty>
  0.0294

> <r_epik_Charging_Adjusted_Penalty>
0.0646675184717486

> <i_epik_Tot_Q>
1

> <i_epik_Tot_abs_Q>
1

> <i_f3d_flags>
0

> <s_lp_Force_Field>
OPLS_2005

> <r_lp_Energy>
33.028631

> <b_lp_Chiralities_Consistent>
1

> <s_lp_Variant>
/home/bortolaa/Project/GT/mario-master/ligands/set505ligs_train.sdf:221-1

> <s_i_glide_gridfile>
struct_1_site_1

> <i_i_glide_lignum>
247

> <i_i_glide_rotatable_bonds>
11

> <r_i_docking_score>
-8.00920136384226

> <r_i_glide_ligand_efficiency>
-0.228834324681207

> <r_i_glide_ligand_efficiency_sa>
-0.748532249192357

> <r_i_glide_ligand_efficiency_ln>
-1.75819745401048

> <r_i_glide_gscore>
-8.03860136384226

> <r_i_glide_lipo>
-3.20006720672736

> <r_i_glide_hbond>
-0.396267188382401

> <r_i_glide_metal>
0

> <r_i_glide_rewards>
-1.47663343399606

> <r_i_glide_evdw>
-49.1250267028809

> <r_i_glide_ecoul>
-9.09178733825684

> <r_i_glide_erotb>
0.905503504266362

> <r_i_glide_esite>
-0.0511176031202321

> <r_i_glide_emodel>
-66.4017064779796

> <r_i_glide_energy>
-58.2168140411377

> <r_i_glide_einternal>
9.52940654754639

> <i_i_glide_confnum>
111

> <i_i_glide_posenum>
234

> <r_i_glide_eff_state_penalty>
0.0294

> <IC50 (nM)>
6.4

> <PMID>
26310890

> <r_glide_shape_similarity>
0.766326725482941

> <s_m_subgroup_title>
505 training

> <s_m_subgroupid>
pocket_pv

> <b_m_subgroup_collapsed>
0

$$$$
/home/bortolaa/Project/GT/mario-master/ligands/set505ligs_train.sdf:151
                    3D
 Schrodinger Suite 2021-2.
 45 48  0  0  1  0            999 V2000
   21.7956   -1.8762   55.1340 N   0  0  0  0  0  0
   23.0858   -1.7222   55.4033 C   0  0  0  0  0  0
   23.9267   -0.8834   54.8209 N   0  0  0  0  0  0
   23.4302   -0.0910   53.8569 C   0  0  0  0  0  0
   22.0667   -0.1621   53.4780 C   0  0  0  0  0  0
   21.4983    0.6072   52.4320 C   0  0  0  0  0  0
   20.1301    0.4793   52.1260 C   0  0  0  0  0  0
   19.3262   -0.4043   52.8372 C   0  0  0  0  0  0
   19.8994   -1.2016   53.8469 C   0  0  0  0  0  0
   21.2639   -1.0939   54.1756 C   0  0  0  0  0  0
   22.2623    1.4446   51.6567 O   0  0  0  0  0  0
   19.5295    1.1715   51.1011 O   0  0  0  0  0  0
   20.3011    2.1708   50.4788 C   0  0  0  0  0  0
   21.7407    1.6847   50.3534 C   0  0  0  0  0  0
   24.2898    0.8514   53.2847 N   0  0  0  0  0  0
   25.6798    0.9460   53.3438 C   0  0  0  0  0  0
   26.4990   -0.1921   53.3328 C   0  0  0  0  0  0
   27.8912   -0.0891   53.3846 C   0  0  0  0  0  0
   28.4862    1.1877   53.4285 C   0  0  0  0  0  0
   27.6743    2.3323   53.4114 C   0  0  0  0  0  0
   26.2765    2.2159   53.3676 C   0  0  0  0  0  0
   28.5596   -1.2875   53.3792 O   0  0  0  0  0  0
   29.9443   -1.2710   53.6444 C   0  0  0  0  0  0
   18.0193   -0.4295   52.4210 O   0  0  0  0  0  0
   17.0159   -0.9219   53.2759 C   0  0  0  0  0  0
   15.6847   -0.3302   52.7954 C   0  0  0  0  0  0
   23.4902   -2.3563   56.1775 H   0  0  0  0  0  0
   19.2957   -1.9119   54.3881 H   0  0  0  0  0  0
   19.8765    2.3935   49.4968 H   0  0  0  0  0  0
   20.2501    3.0875   51.0674 H   0  0  0  0  0  0
   21.7978    0.7777   49.7525 H   0  0  0  0  0  0
   22.3537    2.4378   49.8641 H   0  0  0  0  0  0
   23.8092    1.5883   52.7964 H   0  0  0  0  0  0
   26.0513   -1.1744   53.2865 H   0  0  0  0  0  0
   29.5589    1.3059   53.4606 H   0  0  0  0  0  0
   28.1279    3.3146   53.4410 H   0  0  0  0  0  0
   25.6755    3.1146   53.3693 H   0  0  0  0  0  0
   30.2907   -2.2956   53.7711 H   0  0  0  0  0  0
   30.4954   -0.8309   52.8157 H   0  0  0  0  0  0
   30.1839   -0.7262   54.5609 H   0  0  0  0  0  0
   16.9944   -2.0135   53.2262 H   0  0  0  0  0  0
   17.1989   -0.6377   54.3129 H   0  0  0  0  0  0
   14.8499   -0.7211   53.3824 H   0  0  0  0  0  0
   15.6823    0.7584   52.8937 H   0  0  0  0  0  0
   15.4977   -0.5743   51.7484 H   0  0  0  0  0  0
  1  2  1  0  0  0
  1 10  2  0  0  0
  2  3  2  0  0  0
  2 27  1  0  0  0
  3  4  1  0  0  0
  4  5  2  0  0  0
  4 15  1  0  0  0
  5  6  1  0  0  0
  5 10  1  0  0  0
  6  7  2  0  0  0
  6 11  1  0  0  0
  7  8  1  0  0  0
  7 12  1  0  0  0
  8  9  2  0  0  0
  8 24  1  0  0  0
  9 10  1  0  0  0
  9 28  1  0  0  0
 11 14  1  0  0  0
 12 13  1  0  0  0
 13 14  1  0  0  0
 13 29  1  0  0  0
 13 30  1  0  0  0
 14 31  1  0  0  0
 14 32  1  0  0  0
 15 16  1  0  0  0
 15 33  1  0  0  0
 16 17  1  0  0  0
 16 21  2  0  0  0
 17 18  2  0  0  0
 17 34  1  0  0  0
 18 19  1  0  0  0
 18 22  1  0  0  0
 19 20  2  0  0  0
 19 35  1  0  0  0
 20 21  1  0  0  0
 20 36  1  0  0  0
 21 37  1  0  0  0
 22 23  1  0  0  0
 23 38  1  0  0  0
 23 39  1  0  0  0
 23 40  1  0  0  0
 24 25  1  0  0  0
 25 26  1  0  0  0
 25 41  1  0  0  0
 25 42  1  0  0  0
 26 43  1  0  0  0
 26 44  1  0  0  0
 26 45  1  0  0  0
M  END
> <s_m_entry_id>
238

> <s_m_entry_name>
pocket_pv.49

> <s_m_Source_Path>
/home/bortolaa/Project/GT/mario-master/docking/set505protein_struct_1_site_1_set505ligs_train

> <s_m_Source_File>
pocket_pv.maegz

> <i_m_Source_File_Index>
49

> <From>
www.bindingDB.org

> <BindingDB Reactant_set_id>
50497523

> <Ligand InChI>
InChI=1S/C19H19N3O4/c1-3-24-15-10-14-16(18-17(15)25-7-8-26-18)19(21-11-20-14)22-12-5-4-6-13(9-12)23-2/h4-6,9-11H,3,7-8H2,1-2H3,(H,20,21,22)

> <Ligand InChI Key>
PJADTLKXGYODKV-UHFFFAOYSA-N

> <BindingDB MonomerID>
50171879

> <BindingDB Ligand Name>
CHEMBL3805774::US10106508, Compound I-36

> <Target Name Assigned by Curator or DataSource>
Epidermal growth factor receptor

> <Target Source Organism According to Curator or DataSource>


> <Ki (nM)>


> <Kd (nM)>


> <EC50 (nM)>


> <kon (M-1-s-1)>


> <koff (s-1)>


> <pH>


> <Temp C>


> <Curation/DataSource>
ChEMBL

> <Article DOI>
10.1016/j.bmc.2016.01.003

> <PubChem AID>


> <Patent Number>


> <Authors>
Qin, X; Li, Z; Yang, L; Liu, P; Hu, L; Zeng, C; Pan, Z

> <Institution>
Beijing University of Technology

> <Link to Ligand in BindingDB>
http://www.bindingdb.org/bind/chemsearch/marvin/MolStructure.jsp?monomerid=50171879

> <Link to Ligand-Target Pair in BindingDB>
http://www.bindingdb.org/jsp/dbsearch/PrimarySearch_ki.jsp?energyterm=kJ/mole&tag=r21&monomerid=50171879&enzyme=Epidermal+growth+factor+receptor&column=ki&startPg=0&Increment=50&submit=Search

> <Ligand HET ID in PDB>


> <PDB ID(s) for Ligand-Target Complex>


> <PubChem CID>
122417781

> <PubChem SID>
346548575

> <ChEBI ID of Ligand>


> <ChEMBL ID of Ligand>
CHEMBL3805774

> <DrugBank ID of Ligand>


> <IUPHAR_GRAC ID of Ligand>


> <KEGG ID of Ligand>


> <ZINC ID of Ligand>


> <Number of Protein Chains in Target (>
4

> <BindingDB Target Chain Sequence>
MRANDALQVLGLLFSLARGSEVGNSQAVCPGTLNGLSVTGDAENQYQTLYKLYERCEVVMGNLEIVLTGHNADLSFLQWIREVTGYVLVAMNEFSTLPLPNLRVVRGTQVYDGKFAIFVMLNYNTNSSHALRQLRLTQLTEILSGGVYIEKNDKLCHMDTIDWRDIVRDRDAEIVVKDNGRSCPPCHEVCKGRCWGPGSEDCQTLTKTICAPQCNGHCFGPNPNQCCHDECAGGCSGPQDTDCFACRHFNDSGACVPRCPQPLVYNKLTFQLEPNPHTKYQYGGVCVASCPHNFVVDQTSCVRACPPDKMEVDKNGLKMCEPCGGLCPKACEGTGSGSRFQTVDSSNIDGFVNCTKILGNLDFLITGLNGDPWHKIPALDPEKLNVFRTVREITGYLNIQSWPPHMHNFSVFSNLTTIGGRSLYNRGFSLLIMKNLNVTSLGFRSLKEISAGRIYISANRQLCYHHSLNWTKVLRGPTEERLDIKHNRPRRDCVAEGKVCDPLCSSGGCWGPGPGQCLSCRNYSRGGVCVTHCNFLNGEPREFAHEAECFSCHPECQPMEGTATCNGSGSDTCAQCAHFRDGPHCVSSCPHGVLGAKGPIYKYPDVQNECRPCHENCTQGCKGPELQDCLGQTLVLIGKTHLTMALTVIAGLVVIFMMLGGTFLYWRGRRIQNKRAMRRYLERGESIEPLDPSEKANKVLARIFKETELRKLKVLGSGVFGTVHKGVWIPEGESIKIPVCIKVIEDKSGRQSFQAVTDHMLAIGSLDHAHIVRLLGLCPGSSLQLVTQYLPLGSLLDHVRQHRGALGPQLLLNWGVQIAKGMYYLEEHGMVHRNLAARNVLLKSPSQVQVADFGVADLLPPDDKQLLYSEAKTPIKWMALESIHFGKYTHQSDVWSYGVTVWELMTFGAEPYAGLRLAEVPDLLEKGERLAQPQICTIDVYMVMVKCWMIDENIRPTFKELANEFTRMARDPPRYLVIKRESGPGIAPGPEPHGLTNKKLEEVELEPELDLDLDLEAEEDNLATTTLGSALSLPVGTLNRPRGSQSLLSPSSGYMPMNQGNLGESCQESAVSGSSERCPRPVSLHPMPRGCLASESSEGHVTGSEAELQEKVSMCRSRSRSRSPRPRGDSAYHSQRHSLLTPVTPLSPPGLEEEDVNGYVMPDTHLKGTPSSREGTLSSVGLSSVLGTEEEDEDEEYEYMNRRRRHSPPHPPRPSSLEELGYEYMDVGSDLSASLGSTQSCPLHPVPIMPTAGTTPDEDYEYMNRQRDGGGPGGDYAAMGACPASEQGYEEMRAFQGPGHQAPHVHYARLKTLRSLEATDSAFDNPDYWHSRLFPKANAQRT

> <PDB ID(s) of Target Chain>
3KEX,4RIX,4RIY,5CUS,5O4O,5O7P,6OP9

> <UniProt (SwissProt) Recommended Name of Target Chain>
Receptor tyrosine-protein kinase erbB-3

> <UniProt (SwissProt) Entry Name of Target Chain>
ERBB3_HUMAN

> <UniProt (SwissProt) Primary ID of Target Chain>
P21860

> <UniProt (SwissProt) Secondary ID(s) of Target Chain>
A8K6L6,B4DIK7,B4DV32,E9PDT8,Q9BUD7

> <UniProt (SwissProt) Alternative ID(s) of Target Chain>


> <UniProt (TrEMBL) Submitted Name of Target Chain>


> <UniProt (TrEMBL) Entry Name of Target Chain>


> <UniProt (TrEMBL) Primary ID of Target Chain>


> <UniProt (TrEMBL) Secondary ID(s) of Target Chain>


> <UniProt (TrEMBL) Alternative ID(s) of Target Chain>


> <training label>
7.1549

> <i_lp_mmshare_version>
54117

> <s_epik_input>
TzFbQ0gyXVtDSDJdT2MoYzFjMjMpYyhPW0NIMl1bQ0gzXSlbY0hdYzNuW2NIXW5jMltOSF1jNFtjSF1jKE9bQ0gzXSlbY0hdW2NIXVtjSF00

> <s_epik_cmdline>
J2VwaWtfcHl0aG9uJywgJy1waHQnLCAnMC4xJywgJy1waCcsICc3LjQnLCAnLXRuJywgJzgnLCAnLW1hJywgJzIwMCcsICctaW1hZScsICc8aW5maWxlLm1hZT4nLCAnLW9tYWUnLCAnPG91dGZpbGUubWFlPic=

> <r_lp_tautomer_probability>
1

> <r_epik_Ionization_Penalty>
  0.0016

> <r_epik_Ionization_Penalty_Charging>
  0.0000

> <r_epik_Ionization_Penalty_Neutral>
  0.0016

> <r_epik_State_Penalty>
  0.0000

> <r_epik_Charging_Adjusted_Penalty>
0

> <i_epik_Tot_Q>
0

> <i_epik_Tot_abs_Q>
0

> <i_f3d_flags>
0

> <s_lp_Force_Field>
OPLS_2005

> <r_lp_Energy>
29.099908

> <b_lp_Chiralities_Consistent>
1

> <s_lp_Variant>
/home/bortolaa/Project/GT/mario-master/ligands/set505ligs_train.sdf:151-1

> <s_i_glide_gridfile>
struct_1_site_1

> <i_i_glide_lignum>
175

> <i_i_glide_rotatable_bonds>
5

> <r_i_docking_score>
-8.00658488803039

> <r_i_glide_ligand_efficiency>
-0.307945572616554

> <r_i_glide_ligand_efficiency_sa>
-0.912287547169223

> <r_i_glide_ligand_efficiency_ln>
-1.8803201892061

> <r_i_glide_gscore>
-8.00658488803039

> <r_i_glide_lipo>
-3.04534365500227

> <r_i_glide_hbond>
-0.32

> <r_i_glide_metal>
0

> <r_i_glide_rewards>
-2.17209969427144

> <r_i_glide_evdw>
-42.2941246032715

> <r_i_glide_ecoul>
-5.42140960693359

> <r_i_glide_erotb>
0.458776132446927

> <r_i_glide_esite>
0

> <r_i_glide_emodel>
-57.1073129506081

> <r_i_glide_energy>
-47.7155342102051

> <r_i_glide_einternal>
2.2875440120697

> <i_i_glide_confnum>
6

> <i_i_glide_posenum>
147

> <r_i_glide_eff_state_penalty>
0

> <IC50 (nM)>
70

> <PMID>
27234887

> <r_glide_shape_similarity>
0.855183839797974

> <s_m_subgroup_title>
505 training

> <s_m_subgroupid>
pocket_pv

> <b_m_subgroup_collapsed>
0

$$$$
BindingDB_50291102_mol_1
                    3D
 Schrodinger Suite 2021-2.
 42 44  0  0  1  0            999 V2000
   22.0946   -0.1816   53.4534 C   0  0  0  0  0  0
   23.4645   -0.0776   53.8418 C   0  0  0  0  0  0
   24.4103    0.8475   53.3115 N   0  0  0  0  0  0
   21.2809   -1.0942   54.1662 C   0  0  0  0  0  0
   21.5229    0.5378   52.3867 C   0  0  0  0  0  0
   23.9286   -0.8670   54.8270 N   0  0  0  0  0  0
   19.9140   -1.1964   53.8459 C   0  0  0  0  0  0
   20.1524    0.4587   52.0913 C   0  0  0  0  0  0
   19.3334   -0.3963   52.8397 C   0  0  0  0  0  0
   21.8024   -1.8622   55.1358 N   0  0  0  0  0  0
   23.0891   -1.7061   55.4074 C   0  0  0  0  0  0
   25.8282    0.7229   53.3569 C   0  0  0  0  0  0
   19.5590    1.1788   51.0824 O   0  0  0  0  0  0
   18.0018   -0.4033   52.4976 O   0  0  0  0  0  0
   23.9415    2.2267   53.1758 C   0  0  0  0  0  0
   26.7117    1.8231   53.5207 C   0  0  0  0  0  0
   26.4226   -0.5487   53.2112 C   0  0  0  0  0  0
   17.1058   -1.1473   53.2927 C   0  0  0  0  0  0
   20.3658    1.5899   49.9919 C   0  0  0  0  0  0
   24.2349    2.8276   51.7902 C   0  0  0  0  0  0
   28.1027    1.6455   53.5506 C   0  0  0  0  0  0
   27.8144   -0.7357   53.2664 C   0  0  0  0  0  0
   28.6565    0.3657   53.4370 C   0  0  0  0  0  0
   22.1398    1.1616   51.7706 H   0  0  0  0  0  0
   19.3139   -1.8840   54.4212 H   0  0  0  0  0  0
   23.4993   -2.3421   56.1766 H   0  0  0  0  0  0
   22.8796    2.3140   53.3746 H   0  0  0  0  0  0
   24.3687    2.8561   53.9537 H   0  0  0  0  0  0
   26.3716    2.8411   53.6322 H   0  0  0  0  0  0
   25.8033   -1.4197   53.0582 H   0  0  0  0  0  0
   16.0848   -0.9620   52.9597 H   0  0  0  0  0  0
   17.2953   -2.2174   53.2005 H   0  0  0  0  0  0
   17.1651   -0.8657   54.3446 H   0  0  0  0  0  0
   19.7241    1.9243   49.1767 H   0  0  0  0  0  0
   21.0098    2.4255   50.2678 H   0  0  0  0  0  0
   20.9794    0.7710   49.6128 H   0  0  0  0  0  0
   23.7853    3.8175   51.7073 H   0  0  0  0  0  0
   25.2996    2.9509   51.5967 H   0  0  0  0  0  0
   23.8370    2.2175   50.9806 H   0  0  0  0  0  0
   28.7498    2.5018   53.6786 H   0  0  0  0  0  0
   28.2315   -1.7276   53.1667 H   0  0  0  0  0  0
   29.7289    0.2342   53.4731 H   0  0  0  0  0  0
  1  2  2  0  0  0
  1  4  1  0  0  0
  1  5  1  0  0  0
  2  3  1  0  0  0
  2  6  1  0  0  0
  3 12  1  0  0  0
  3 15  1  0  0  0
  4  7  1  0  0  0
  4 10  2  0  0  0
  5  8  2  0  0  0
  5 24  1  0  0  0
  6 11  2  0  0  0
  7  9  2  0  0  0
  7 25  1  0  0  0
  8  9  1  0  0  0
  8 13  1  0  0  0
  9 14  1  0  0  0
 10 11  1  0  0  0
 11 26  1  0  0  0
 12 16  2  0  0  0
 12 17  1  0  0  0
 13 19  1  0  0  0
 14 18  1  0  0  0
 15 20  1  0  0  0
 15 27  1  0  0  0
 15 28  1  0  0  0
 16 21  1  0  0  0
 16 29  1  0  0  0
 17 22  2  0  0  0
 17 30  1  0  0  0
 18 31  1  0  0  0
 18 32  1  0  0  0
 18 33  1  0  0  0
 19 34  1  0  0  0
 19 35  1  0  0  0
 19 36  1  0  0  0
 20 37  1  0  0  0
 20 38  1  0  0  0
 20 39  1  0  0  0
 21 23  2  0  0  0
 21 40  1  0  0  0
 22 23  1  0  0  0
 22 41  1  0  0  0
 23 42  1  0  0  0
M  END
> <s_m_entry_id>
239

> <s_m_entry_name>
pocket_pv.50

> <s_m_Source_Path>
/home/bortolaa/Project/GT/mario-master/docking/set505protein_struct_1_site_1_set505ligs_train

> <s_m_Source_File>
pocket_pv.maegz

> <i_m_Source_File_Index>
50

> <From>
www.bindingDB.org

> <BindingDB Reactant_set_id>
50486149

> <Ligand InChI>
InChI=1S/C18H19N3O2/c1-4-21(13-8-6-5-7-9-13)18-14-10-16(22-2)17(23-3)11-15(14)19-12-20-18/h5-12H,4H2,1-3H3

> <Ligand InChI Key>
LNIYPQOICFDONW-UHFFFAOYSA-N

> <BindingDB MonomerID>
50291102

> <BindingDB Ligand Name>
(6,7-Dimethoxy-quinazolin-4-yl)-ethyl-phenyl-amine; hydrochloride::CHEMBL554053

> <Target Name Assigned by Curator or DataSource>
Epidermal growth factor receptor

> <Target Source Organism According to Curator or DataSource>
Homo sapiens

> <Ki (nM)>


> <IC50 (nM)>
5500

> <Kd (nM)>


> <EC50 (nM)>


> <kon (M-1-s-1)>


> <koff (s-1)>


> <pH>


> <Temp C>


> <Curation/DataSource>
ChEMBL

> <Article DOI>
10.1016/S0960-894X(97)00035-8

> <PMID>


> <PubChem AID>


> <Patent Number>


> <Authors>
Myers, MR; Setzer, NN; Spada, AP; Persons, PE; Ly, CQ; Maguire, MP; Zulli, AL; Cheney, DL; Zilberstein, A; Johnson, SE; Franks, CF; Mitchell, KJ

> <Institution>
TBA

> <Link to Ligand in BindingDB>
http://www.bindingdb.org/bind/chemsearch/marvin/MolStructure.jsp?monomerid=50291102

> <Link to Ligand-Target Pair in BindingDB>
http://www.bindingdb.org/jsp/dbsearch/PrimarySearch_ki.jsp?energyterm=kJ/mole&tag=r21&monomerid=50291102&enzyme=Epidermal+growth+factor+receptor&column=ki&startPg=0&Increment=50&submit=Search

> <Ligand HET ID in PDB>


> <PDB ID(s) for Ligand-Target Complex>


> <PubChem CID>
18770775

> <PubChem SID>
104132654

> <ChEBI ID of Ligand>


> <ChEMBL ID of Ligand>
CHEMBL554053

> <DrugBank ID of Ligand>


> <IUPHAR_GRAC ID of Ligand>


> <KEGG ID of Ligand>


> <ZINC ID of Ligand>
ZINC27420870

> <Number of Protein Chains in Target (>
1

> <BindingDB Target Chain Sequence>
MRPSGTAGAALLALLAALCPASRALEEKKVCQGTSNKLTQLGTFEDHFLSLQRMFNNCEVVLGNLEITYVQRNYDLSFLKTIQEVAGYVLIALNTVERIPLENLQIIRGNMYYENSYALAVLSNYDANKTGLKELPMRNLQEILHGAVRFSNNPALCNVESIQWRDIVSSDFLSNMSMDFQNHLGSCQKCDPSCPNGSCWGAGEENCQKLTKIICAQQCSGRCRGKSPSDCCHNQCAAGCTGPRESDCLVCRKFRDEATCKDTCPPLMLYNPTTYQMDVNPEGKYSFGATCVKKCPRNYVVTDHGSCVRACGADSYEMEEDGVRKCKKCEGPCRKVCNGIGIGEFKDSLSINATNIKHFKNCTSISGDLHILPVAFRGDSFTHTPPLDPQELDILKTVKEITGFLLIQAWPENRTDLHAFENLEIIRGRTKQHGQFSLAVVSLNITSLGLRSLKEISDGDVIISGNKNLCYANTINWKKLFGTSGQKTKIISNRGENSCKATGQVCHALCSPEGCWGPEPRDCVSCRNVSRGRECVDKCNLLEGEPREFVENSECIQCHPECLPQAMNITCTGRGPDNCIQCAHYIDGPHCVKTCPAGVMGENNTLVWKYADAGHVCHLCHPNCTYGCTGPGLEGCPTNGPKIPSIATGMVGALLLLLVVALGIGLFMRRRHIVRKRTLRRLLQERELVEPLTPSGEAPNQALLRILKETEFKKIKVLGSGAFGTVYKGLWIPEGEKVKIPVAIKELREATSPKANKEILDEAYVMASVDNPHVCRLLGICLTSTVQLITQLMPFGCLLDYVREHKDNIGSQYLLNWCVQIAKGMNYLEDRRLVHRDLAARNVLVKTPQHVKITDFGLAKLLGAEEKEYHAEGGKVPIKWMALESILHRIYTHQSDVWSYGVTVWELMTFGSKPYDGIPASEISSILEKGERLPQPPICTIDVYMIMVKCWMIDADSRPKFRELIIEFSKMARDPQRYLVIQGDERMHLPSPTDSNFYRALMDEEDMDDVVDADEYLIPQQGFFSSPSTSRTPLLSSLSATSNNSTVACIDRNGLQSCPIKEDSFLQRYSSDPTGALTEDSIDDTFLPVPEYINQSVPKRPAGSVQNPVYHNQPLNPAPSRDPHYQDPHSTAVGNPEYLNTVQPTCVNSTFDSPAHWAQKGSHQISLDNPDYQQDFFPKEAKPNGIFKGSTAENAEYLRVAPQSSEFIGA

> <PDB ID(s) of Target Chain>
1IVO,1M14,1M17,1MOX,1XKK,1Z9I,2GS2,2GS6,2ITW,2ITX,2ITY,2J5E,2J5F,2J6M,2RF9,2RGP,3B2V,3BEL,3GOP,3POZ,3QWQ,3VJO,3W2O,3W2P,3W2Q,3W2R,3W2S,3W32,3W33,4G5J,4I23,4JQ7,4JQ8,4JR3,4JRV,4KRO,4LI5,4RJ4,4RJ5,4RJ6,4RJ7,4RJ8,4TKS,4UIP,4UV7,4WKQ,4WRG,4ZAU,5C8K,5C8M,5C8N,5CAL,5CAN,5CAO,5CAP,5CAQ,5CAS,5CAU,5CAV,5EDP,5EDQ,5EDR,5EM5,5EM6,5EM7,5EM8,5FED,5GNK,5HCX,5HCY,5HCZ,5HIB,5HIC,5UGB,5WB7,5WB8,5Y25,6S89,6S8A

> <UniProt (SwissProt) Recommended Name of Target Chain>
Epidermal growth factor receptor

> <UniProt (SwissProt) Entry Name of Target Chain>
EGFR_HUMAN

> <UniProt (SwissProt) Primary ID of Target Chain>
P00533

> <UniProt (SwissProt) Secondary ID(s) of Target Chain>
O00688,O00732,P06268,Q14225,Q68GS5,Q92795,Q9BZS2,Q9GZX1,Q9H2C9,Q9H3C9,Q9UMD7,Q9UMD8,Q9UMG5

> <UniProt (SwissProt) Alternative ID(s) of Target Chain>


> <UniProt (TrEMBL) Submitted Name of Target Chain>


> <UniProt (TrEMBL) Entry Name of Target Chain>


> <UniProt (TrEMBL) Primary ID of Target Chain>


> <UniProt (TrEMBL) Secondary ID(s) of Target Chain>


> <UniProt (TrEMBL) Alternative ID(s) of Target Chain>


> <training label>
5.25964

> <i_lp_mmshare_version>
54117

> <s_epik_input>
W0NIM11PYyhbY0hdMSljKE9bQ0gzXSlbY0hdYyhjMTIpbltjSF1uYzJOKFtDSDJdW0NIM10pYzNbY0hdW2NIXVtjSF1bY0hdW2NIXTM=

> <s_epik_cmdline>
J2VwaWtfcHl0aG9uJywgJy1waHQnLCAnMC4xJywgJy1waCcsICc3LjQnLCAnLXRuJywgJzgnLCAnLW1hJywgJzIwMCcsICctaW1hZScsICc8aW5maWxlLm1hZT4nLCAnLW9tYWUnLCAnPG91dGZpbGUubWFlPic=

> <r_lp_tautomer_probability>
1

> <r_epik_Ionization_Penalty>
  0.0007

> <r_epik_Ionization_Penalty_Charging>
  0.0000

> <r_epik_Ionization_Penalty_Neutral>
  0.0007

> <r_epik_State_Penalty>
  0.0000

> <r_epik_Charging_Adjusted_Penalty>
0

> <i_epik_Tot_Q>
0

> <i_epik_Tot_abs_Q>
0

> <i_f3d_flags>
0

> <s_lp_Force_Field>
OPLS_2005

> <r_lp_Energy>
23.851587

> <b_lp_Chiralities_Consistent>
1

> <s_lp_Variant>
BindingDB_50291102_mol_1-1

> <s_i_glide_gridfile>
struct_1_site_1

> <i_i_glide_lignum>
35

> <i_i_glide_rotatable_bonds>
5

> <r_i_docking_score>
-8.00591244169518

> <r_i_glide_ligand_efficiency>
-0.348083149638921

> <r_i_glide_ligand_efficiency_sa>
-0.989902174466247

> <r_i_glide_ligand_efficiency_ln>
-1.93590222200237

> <r_i_glide_gscore>
-8.00591244169518

> <r_i_glide_lipo>
-2.94906533280099

> <r_i_glide_hbond>
-0.32

> <r_i_glide_metal>
0

> <r_i_glide_rewards>
-2.48111364610508

> <r_i_glide_evdw>
-36.6023902893066

> <r_i_glide_ecoul>
-5.41689014434814

> <r_i_glide_erotb>
0.386919573328443

> <r_i_glide_esite>
0

> <r_i_glide_emodel>
-35.4331843906926

> <r_i_glide_energy>
-42.0192804336548

> <r_i_glide_einternal>
5.74863624572754

> <i_i_glide_confnum>
10

> <i_i_glide_posenum>
360

> <r_i_glide_eff_state_penalty>
0

> <r_glide_shape_similarity>
0.757648885250092

> <s_m_subgroup_title>
505 training

> <s_m_subgroupid>
pocket_pv

> <b_m_subgroup_collapsed>
0

$$$$
BindingDB_50291103_mol_1
                    3D
 Schrodinger Suite 2021-2.
 42 44  0  0  1  0            999 V2000
   22.0643   -0.1645   53.4871 C   0  0  0  0  0  0
   23.4175   -0.0913   53.8815 C   0  0  0  0  0  0
   24.3874    0.7093   53.2546 N   0  0  0  0  0  0
   29.2447    1.4141   53.7115 C   0  0  0  0  0  0
   21.2529   -1.0910   54.1756 C   0  0  0  0  0  0
   21.5230    0.5979   52.4371 C   0  0  0  0  0  0
   23.8767   -0.8658   54.8816 N   0  0  0  0  0  0
   25.7190    0.2868   53.1626 C   0  0  0  0  0  0
   19.8952   -1.1873   53.8354 C   0  0  0  0  0  0
   28.0882    0.5249   53.4878 C   0  0  0  0  0  0
   20.1597    0.5017   52.1108 C   0  0  0  0  0  0
   19.3335   -0.3753   52.8280 C   0  0  0  0  0  0
   26.8173    1.1052   53.4357 C   0  0  0  0  0  0
   21.7633   -1.8731   55.1412 N   0  0  0  0  0  0
   23.0403   -1.7098   55.4444 C   0  0  0  0  0  0
   30.3331    0.7342   53.3747 F   0  0  0  0  0  0
   29.3108    1.7730   54.9748 F   0  0  0  0  0  0
   29.0884    2.5051   52.9746 F   0  0  0  0  0  0
   19.5786    1.2294   51.1015 O   0  0  0  0  0  0
   18.0085   -0.3835   52.4604 O   0  0  0  0  0  0
   24.1778    2.1463   53.2951 C   0  0  0  0  0  0
   25.9494   -1.0657   52.8574 C   0  0  0  0  0  0
   28.2960   -0.8552   53.3127 C   0  0  0  0  0  0
   27.2127   -1.6570   52.9749 C   0  0  0  0  0  0
   20.3917    1.6056   50.0036 C   0  0  0  0  0  0
   17.0988   -1.1342   53.2335 C   0  0  0  0  0  0
   22.1556    1.2586   51.8673 H   0  0  0  0  0  0
   19.2865   -1.8842   54.3903 H   0  0  0  0  0  0
   26.7173    2.1614   53.6370 H   0  0  0  0  0  0
   23.4418   -2.3468   56.2162 H   0  0  0  0  0  0
   23.1243    2.3939   53.3655 H   0  0  0  0  0  0
   24.6682    2.6108   54.1501 H   0  0  0  0  0  0
   24.5644    2.6131   52.3887 H   0  0  0  0  0  0
   25.1046   -1.6697   52.5829 H   0  0  0  0  0  0
   29.2759   -1.3043   53.3876 H   0  0  0  0  0  0
   27.3452   -2.7142   52.7937 H   0  0  0  0  0  0
   21.0133    2.4678   50.2509 H   0  0  0  0  0  0
   21.0311    0.7852   49.6676 H   0  0  0  0  0  0
   19.7508    1.8888   49.1679 H   0  0  0  0  0  0
   16.0840   -0.9441   52.8849 H   0  0  0  0  0  0
   17.2882   -2.2030   53.1327 H   0  0  0  0  0  0
   17.1407   -0.8652   54.2895 H   0  0  0  0  0  0
  1  2  2  0  0  0
  1  5  1  0  0  0
  1  6  1  0  0  0
  2  3  1  0  0  0
  2  7  1  0  0  0
  3  8  1  0  0  0
  3 21  1  0  0  0
  4 10  1  0  0  0
  4 16  1  0  0  0
  4 17  1  0  0  0
  4 18  1  0  0  0
  5  9  1  0  0  0
  5 14  2  0  0  0
  6 11  2  0  0  0
  6 27  1  0  0  0
  7 15  2  0  0  0
  8 13  2  0  0  0
  8 22  1  0  0  0
  9 12  2  0  0  0
  9 28  1  0  0  0
 10 13  1  0  0  0
 10 23  2  0  0  0
 11 12  1  0  0  0
 11 19  1  0  0  0
 12 20  1  0  0  0
 13 29  1  0  0  0
 14 15  1  0  0  0
 15 30  1  0  0  0
 19 25  1  0  0  0
 20 26  1  0  0  0
 21 31  1  0  0  0
 21 32  1  0  0  0
 21 33  1  0  0  0
 22 24  2  0  0  0
 22 34  1  0  0  0
 23 24  1  0  0  0
 23 35  1  0  0  0
 24 36  1  0  0  0
 25 37  1  0  0  0
 25 38  1  0  0  0
 25 39  1  0  0  0
 26 40  1  0  0  0
 26 41  1  0  0  0
 26 42  1  0  0  0
M  END
> <s_m_entry_id>
240

> <s_m_entry_name>
pocket_pv.51

> <s_m_Source_Path>
/home/bortolaa/Project/GT/mario-master/docking/set505protein_struct_1_site_1_set505ligs_train

> <s_m_Source_File>
pocket_pv.maegz

> <i_m_Source_File_Index>
51

> <From>
www.bindingDB.org

> <BindingDB Reactant_set_id>
50486158

> <Ligand InChI>
InChI=1S/C18H16F3N3O2/c1-24(12-6-4-5-11(7-12)18(19,20)21)17-13-8-15(25-2)16(26-3)9-14(13)22-10-23-17/h4-10H,1-3H3

> <Ligand InChI Key>
PNFNUKCRDMUSSD-UHFFFAOYSA-N

> <BindingDB MonomerID>
50291103

> <BindingDB Ligand Name>
(6,7-Dimethoxy-quinazolin-4-yl)-methyl-(3-trifluoromethyl-phenyl)-amine; hydrochloride::CHEMBL539807

> <Target Name Assigned by Curator or DataSource>
Epidermal growth factor receptor

> <Target Source Organism According to Curator or DataSource>
Homo sapiens

> <Ki (nM)>


> <IC50 (nM)>
30000

> <Kd (nM)>


> <EC50 (nM)>


> <kon (M-1-s-1)>


> <koff (s-1)>


> <pH>


> <Temp C>


> <Curation/DataSource>
ChEMBL

> <Article DOI>
10.1016/S0960-894X(97)00035-8

> <PMID>


> <PubChem AID>


> <Patent Number>


> <Authors>
Myers, MR; Setzer, NN; Spada, AP; Persons, PE; Ly, CQ; Maguire, MP; Zulli, AL; Cheney, DL; Zilberstein, A; Johnson, SE; Franks, CF; Mitchell, KJ

> <Institution>
TBA

> <Link to Ligand in BindingDB>
http://www.bindingdb.org/bind/chemsearch/marvin/MolStructure.jsp?monomerid=50291103

> <Link to Ligand-Target Pair in BindingDB>
http://www.bindingdb.org/jsp/dbsearch/PrimarySearch_ki.jsp?energyterm=kJ/mole&tag=r21&monomerid=50291103&enzyme=Epidermal+growth+factor+receptor&column=ki&startPg=0&Increment=50&submit=Search

> <Ligand HET ID in PDB>


> <PDB ID(s) for Ligand-Target Complex>


> <PubChem CID>
17938633

> <PubChem SID>
104132655

> <ChEBI ID of Ligand>


> <ChEMBL ID of Ligand>
CHEMBL539807

> <DrugBank ID of Ligand>


> <IUPHAR_GRAC ID of Ligand>


> <KEGG ID of Ligand>


> <ZINC ID of Ligand>
ZINC27419733

> <Number of Protein Chains in Target (>
1

> <BindingDB Target Chain Sequence>
MRPSGTAGAALLALLAALCPASRALEEKKVCQGTSNKLTQLGTFEDHFLSLQRMFNNCEVVLGNLEITYVQRNYDLSFLKTIQEVAGYVLIALNTVERIPLENLQIIRGNMYYENSYALAVLSNYDANKTGLKELPMRNLQEILHGAVRFSNNPALCNVESIQWRDIVSSDFLSNMSMDFQNHLGSCQKCDPSCPNGSCWGAGEENCQKLTKIICAQQCSGRCRGKSPSDCCHNQCAAGCTGPRESDCLVCRKFRDEATCKDTCPPLMLYNPTTYQMDVNPEGKYSFGATCVKKCPRNYVVTDHGSCVRACGADSYEMEEDGVRKCKKCEGPCRKVCNGIGIGEFKDSLSINATNIKHFKNCTSISGDLHILPVAFRGDSFTHTPPLDPQELDILKTVKEITGFLLIQAWPENRTDLHAFENLEIIRGRTKQHGQFSLAVVSLNITSLGLRSLKEISDGDVIISGNKNLCYANTINWKKLFGTSGQKTKIISNRGENSCKATGQVCHALCSPEGCWGPEPRDCVSCRNVSRGRECVDKCNLLEGEPREFVENSECIQCHPECLPQAMNITCTGRGPDNCIQCAHYIDGPHCVKTCPAGVMGENNTLVWKYADAGHVCHLCHPNCTYGCTGPGLEGCPTNGPKIPSIATGMVGALLLLLVVALGIGLFMRRRHIVRKRTLRRLLQERELVEPLTPSGEAPNQALLRILKETEFKKIKVLGSGAFGTVYKGLWIPEGEKVKIPVAIKELREATSPKANKEILDEAYVMASVDNPHVCRLLGICLTSTVQLITQLMPFGCLLDYVREHKDNIGSQYLLNWCVQIAKGMNYLEDRRLVHRDLAARNVLVKTPQHVKITDFGLAKLLGAEEKEYHAEGGKVPIKWMALESILHRIYTHQSDVWSYGVTVWELMTFGSKPYDGIPASEISSILEKGERLPQPPICTIDVYMIMVKCWMIDADSRPKFRELIIEFSKMARDPQRYLVIQGDERMHLPSPTDSNFYRALMDEEDMDDVVDADEYLIPQQGFFSSPSTSRTPLLSSLSATSNNSTVACIDRNGLQSCPIKEDSFLQRYSSDPTGALTEDSIDDTFLPVPEYINQSVPKRPAGSVQNPVYHNQPLNPAPSRDPHYQDPHSTAVGNPEYLNTVQPTCVNSTFDSPAHWAQKGSHQISLDNPDYQQDFFPKEAKPNGIFKGSTAENAEYLRVAPQSSEFIGA

> <PDB ID(s) of Target Chain>
1IVO,1M14,1M17,1MOX,1XKK,1Z9I,2GS2,2GS6,2ITW,2ITX,2ITY,2J5E,2J5F,2J6M,2RF9,2RGP,3B2V,3BEL,3GOP,3POZ,3QWQ,3VJO,3W2O,3W2P,3W2Q,3W2R,3W2S,3W32,3W33,4G5J,4I23,4JQ7,4JQ8,4JR3,4JRV,4KRO,4LI5,4RJ4,4RJ5,4RJ6,4RJ7,4RJ8,4TKS,4UIP,4UV7,4WKQ,4WRG,4ZAU,5C8K,5C8M,5C8N,5CAL,5CAN,5CAO,5CAP,5CAQ,5CAS,5CAU,5CAV,5EDP,5EDQ,5EDR,5EM5,5EM6,5EM7,5EM8,5FED,5GNK,5HCX,5HCY,5HCZ,5HIB,5HIC,5UGB,5WB7,5WB8,5Y25,6S89,6S8A

> <UniProt (SwissProt) Recommended Name of Target Chain>
Epidermal growth factor receptor

> <UniProt (SwissProt) Entry Name of Target Chain>
EGFR_HUMAN

> <UniProt (SwissProt) Primary ID of Target Chain>
P00533

> <UniProt (SwissProt) Secondary ID(s) of Target Chain>
O00688,O00732,P06268,Q14225,Q68GS5,Q92795,Q9BZS2,Q9GZX1,Q9H2C9,Q9H3C9,Q9UMD7,Q9UMD8,Q9UMG5

> <UniProt (SwissProt) Alternative ID(s) of Target Chain>


> <UniProt (TrEMBL) Submitted Name of Target Chain>


> <UniProt (TrEMBL) Entry Name of Target Chain>


> <UniProt (TrEMBL) Primary ID of Target Chain>


> <UniProt (TrEMBL) Secondary ID(s) of Target Chain>


> <UniProt (TrEMBL) Alternative ID(s) of Target Chain>


> <training label>
4.52288

> <i_lp_mmshare_version>
54117

> <s_epik_input>
W0NIM11PYyhbY0hdMSljKE9bQ0gzXSlbY0hdYyhjMTIpbltjSF1uYzJOKFtDSDNdKWMzW2NIXWMoQyhGKShGKUYpW2NIXVtjSF1bY0hdMw==

> <s_epik_cmdline>
J2VwaWtfcHl0aG9uJywgJy1waHQnLCAnMC4xJywgJy1waCcsICc3LjQnLCAnLXRuJywgJzgnLCAnLW1hJywgJzIwMCcsICctaW1hZScsICc8aW5maWxlLm1hZT4nLCAnLW9tYWUnLCAnPG91dGZpbGUubWFlPic=

> <r_lp_tautomer_probability>
1

> <r_epik_Ionization_Penalty>
  0.0009

> <r_epik_Ionization_Penalty_Charging>
  0.0000

> <r_epik_Ionization_Penalty_Neutral>
  0.0009

> <r_epik_State_Penalty>
  0.0000

> <r_epik_Charging_Adjusted_Penalty>
0

> <i_epik_Tot_Q>
0

> <i_epik_Tot_abs_Q>
0

> <i_f3d_flags>
0

> <s_lp_Force_Field>
OPLS_2005

> <r_lp_Energy>
22.720193

> <b_lp_Chiralities_Consistent>
1

> <s_lp_Variant>
BindingDB_50291103_mol_1-1

> <s_i_glide_gridfile>
struct_1_site_1

> <i_i_glide_lignum>
11

> <i_i_glide_rotatable_bonds>
5

> <r_i_docking_score>
-7.99905976690959

> <r_i_glide_ligand_efficiency>
-0.307656144881138

> <r_i_glide_ligand_efficiency_sa>
-0.911430118641898

> <r_i_glide_ligand_efficiency_ln>
-1.87855293920282

> <r_i_glide_gscore>
-7.99905976690959

> <r_i_glide_lipo>
-3.12285731213576

> <r_i_glide_hbond>
-0.32

> <r_i_glide_metal>
0

> <r_i_glide_rewards>
-2.20805983792447

> <r_i_glide_evdw>
-37.055103302002

> <r_i_glide_ecoul>
-4.24144792556763

> <r_i_glide_erotb>
0.291069302257452

> <r_i_glide_esite>
-0.150239565171572

> <r_i_glide_emodel>
-33.4356377342613

> <r_i_glide_energy>
-41.2965512275696

> <r_i_glide_einternal>
8.72238826751709

> <i_i_glide_confnum>
7

> <i_i_glide_posenum>
2

> <r_i_glide_eff_state_penalty>
0

> <r_glide_shape_similarity>
0.769684016704559

> <s_m_subgroup_title>
505 training

> <s_m_subgroupid>
pocket_pv

> <b_m_subgroup_collapsed>
0

$$$$
4-Anilinoquinazoline
                    3D
 Schrodinger Suite 2021-2.
 58 61  0  0  1  0            999 V2000
   23.4595   -0.0933   53.8684 C   0  0  0  0  0  0
   23.0832   -1.6904   55.4622 C   0  0  0  0  0  0
   21.2763   -1.1014   54.1840 C   0  0  0  0  0  0
   22.0893   -0.1543   53.4953 C   0  0  0  0  0  0
   21.5349    0.6520   52.4740 C   0  0  0  0  0  0
   20.1637    0.5280   52.1298 C   0  0  0  0  0  0
   19.3433   -0.3896   52.8322 C   0  0  0  0  0  0
   19.9131   -1.2054   53.8429 C   0  0  0  0  0  0
   23.9316   -0.8686   54.8637 N   0  0  0  0  0  0
   21.7995   -1.8807   55.1587 N   0  0  0  0  0  0
   25.8131    0.4976   53.2299 C   0  0  0  0  0  0
   28.1318    1.2744   53.5358 C   0  0  0  0  0  0
   26.7441    1.5522   53.4146 C   0  0  0  0  0  0
   26.3156   -0.8259   53.0897 C   0  0  0  0  0  0
   28.5966   -0.0654   53.4805 C   0  0  0  0  0  0
   26.3080    2.8287   53.5203 F   0  0  0  0  0  0
   24.4167    0.7309   53.2384 N   0  0  0  0  0  0
   24.1046    1.6458   52.9318 H   0  0  0  0  0  0
   18.0199   -0.4456   52.4472 O   0  0  0  0  0  0
   19.5769    1.2665   51.1189 O   0  0  0  0  0  0
   20.3818    1.6258   49.9946 C   0  0  0  0  0  0
   17.1724   -1.3795   53.0909 C   0  0  0  0  0  0
   27.6895   -1.1103   53.2276 C   0  0  0  0  0  0
   30.2592   -0.4664   53.7621 Cl  0  0  0  0  0  0
   15.7395   -1.2172   52.5677 C   0  0  0  0  0  0
   15.0686    0.0933   53.0404 C   0  0  1  0  0  0
   12.8575    1.2606   53.5659 C   0  0  0  0  0  0
   14.7007    2.5972   52.5614 C   0  0  0  0  0  0
   15.4375    1.2962   52.1371 C   0  0  0  0  0  0
   13.5328   -0.0607   53.1213 C   0  0  0  0  0  0
   13.2200    2.4095   52.6693 N   0  3  2  0  0  0
   12.5370    3.6762   53.0580 C   0  0  0  0  0  0
   23.4865   -2.3209   56.2414 H   0  0  0  0  0  0
   22.1598    1.3586   51.9507 H   0  0  0  0  0  0
   19.3175   -1.9139   54.3919 H   0  0  0  0  0  0
   28.8253    2.0838   53.7156 H   0  0  0  0  0  0
   25.6320   -1.6457   52.9161 H   0  0  0  0  0  0
   19.7356    1.9552   49.1792 H   0  0  0  0  0  0
   21.0543    2.4482   50.2427 H   0  0  0  0  0  0
   20.9660    0.7758   49.6361 H   0  0  0  0  0  0
   17.1832   -1.2312   54.1716 H   0  0  0  0  0  0
   17.5267   -2.3918   52.8930 H   0  0  0  0  0  0
   28.0331   -2.1340   53.1548 H   0  0  0  0  0  0
   15.1654   -2.0581   52.9540 H   0  0  0  0  0  0
   15.7056   -1.3034   51.4808 H   0  0  0  0  0  0
   15.4025    0.3047   54.0573 H   0  0  0  0  0  0
   11.7729    1.1320   53.5703 H   0  0  0  0  0  0
   13.1437    1.5000   54.5923 H   0  0  0  0  0  0
   14.9116    3.3851   51.8332 H   0  0  0  0  0  0
   15.0839    2.9566   53.5157 H   0  0  0  0  0  0
   15.1953    1.0684   51.0991 H   0  0  0  0  0  0
   16.5108    1.4862   52.1705 H   0  0  0  0  0  0
   13.2708   -0.8575   53.8216 H   0  0  0  0  0  0
   13.1423   -0.3599   52.1475 H   0  0  0  0  0  0
   12.8430    4.0005   54.0554 H   0  0  0  0  0  0
   12.7584    4.4761   52.3493 H   0  0  0  0  0  0
   11.4607    3.5339   53.0627 H   0  0  0  0  0  0
   12.8749    2.1770   51.7365 H   0  0  0  0  0  0
  1  4  2  0  0  0
  1  9  1  0  0  0
  1 17  1  0  0  0
  2  9  2  0  0  0
  2 10  1  0  0  0
  2 33  1  0  0  0
  3  4  1  0  0  0
  3  8  1  0  0  0
  3 10  2  0  0  0
  4  5  1  0  0  0
  5  6  2  0  0  0
  5 34  1  0  0  0
  6  7  1  0  0  0
  6 20  1  0  0  0
  7  8  2  0  0  0
  7 19  1  0  0  0
  8 35  1  0  0  0
 11 13  2  0  0  0
 11 14  1  0  0  0
 11 17  1  0  0  0
 12 13  1  0  0  0
 12 15  2  0  0  0
 12 36  1  0  0  0
 13 16  1  0  0  0
 14 23  2  0  0  0
 14 37  1  0  0  0
 15 23  1  0  0  0
 15 24  1  0  0  0
 17 18  1  0  0  0
 19 22  1  0  0  0
 20 21  1  0  0  0
 21 38  1  0  0  0
 21 39  1  0  0  0
 21 40  1  0  0  0
 22 25  1  0  0  0
 22 41  1  0  0  0
 22 42  1  0  0  0
 23 43  1  0  0  0
 25 26  1  0  0  0
 25 44  1  0  0  0
 25 45  1  0  0  0
 26 29  1  0  0  0
 26 30  1  0  0  0
 26 46  1  0  0  0
 27 30  1  0  0  0
 27 31  1  0  0  0
 27 47  1  0  0  0
 27 48  1  0  0  0
 28 29  1  0  0  0
 28 31  1  0  0  0
 28 49  1  0  0  0
 28 50  1  0  0  0
 29 51  1  0  0  0
 29 52  1  0  0  0
 30 53  1  0  0  0
 30 54  1  0  0  0
 31 32  1  0  0  0
 31 58  1  0  0  0
 32 55  1  0  0  0
 32 56  1  0  0  0
 32 57  1  0  0  0
M  CHG  1  31   1
M  END
> <s_m_entry_id>
241

> <s_m_entry_name>
pocket_pv.52

> <s_m_Source_Path>
/home/bortolaa/Project/GT/mario-master/docking/set505protein_struct_1_site_1_set505ligs_train

> <s_m_Source_File>
pocket_pv.maegz

> <i_m_Source_File_Index>
52

> <From>
www.bindingDB.org

> <BindingDB Reactant_set_id>
7092

> <Ligand InChI>
InChI=1S/C23H26ClFN4O2/c1-29-8-5-15(6-9-29)7-10-31-22-13-20-17(12-21(22)30-2)23(27-14-26-20)28-19-4-3-16(24)11-18(19)25/h3-4,11-15H,5-10H2,1-2H3,(H,26,27,28)

> <Ligand InChI Key>
VEOIWTSZBRXBQG-UHFFFAOYSA-N

> <BindingDB MonomerID>
4679

> <BindingDB Ligand Name>
4-Anilinoquinazoline 26::N-(4-chloro-2-fluorophenyl)-6-methoxy-7-[2-(1-methylpiperidin-4-yl)ethoxy]quinazolin-4-amine

> <Target Name Assigned by Curator or DataSource>
Epidermal growth factor receptor

> <Target Source Organism According to Curator or DataSource>
Homo sapiens

> <Ki (nM)>


> <Kd (nM)>


> <EC50 (nM)>


> <kon (M-1-s-1)>


> <koff (s-1)>


> <pH>


> <Curation/DataSource>
Curated from the literature by BindingDB

> <Article DOI>
10.1021/jm011022e

> <PubChem AID>


> <Patent Number>


> <Authors>
Hennequin, LF; Stokes, ES; Thomas, AP; Johnstone, C; Ple, PA; Ogilvie, DJ; Dukes, M; Wedge, SR; Kendrew, J; Curwen, JO

> <Institution>
AstraZeneca

> <Link to Ligand in BindingDB>
http://www.bindingdb.org/bind/chemsearch/marvin/MolStructure.jsp?monomerid=4679

> <Link to Ligand-Target Pair in BindingDB>
http://www.bindingdb.org/jsp/dbsearch/PrimarySearch_ki.jsp?energyterm=kJ/mole&tag=r21&monomerid=4679&enzyme=Epidermal+growth+factor+receptor&column=ki&startPg=0&Increment=50&submit=Search

> <Ligand HET ID in PDB>


> <PDB ID(s) for Ligand-Target Complex>


> <PubChem CID>
5329052

> <PubChem SID>
8034336

> <ChEBI ID of Ligand>


> <ChEMBL ID of Ligand>


> <DrugBank ID of Ligand>


> <IUPHAR_GRAC ID of Ligand>


> <KEGG ID of Ligand>


> <ZINC ID of Ligand>
ZINC08662784

> <Number of Protein Chains in Target (>
1

> <BindingDB Target Chain Sequence>
MRPSGTAGAALLALLAALCPASRALEEKKVCQGTSNKLTQLGTFEDHFLSLQRMFNNCEVVLGNLEITYVQRNYDLSFLKTIQEVAGYVLIALNTVERIPLENLQIIRGNMYYENSYALAVLSNYDANKTGLKELPMRNLQEILHGAVRFSNNPALCNVESIQWRDIVSSDFLSNMSMDFQNHLGSCQKCDPSCPNGSCWGAGEENCQKLTKIICAQQCSGRCRGKSPSDCCHNQCAAGCTGPRESDCLVCRKFRDEATCKDTCPPLMLYNPTTYQMDVNPEGKYSFGATCVKKCPRNYVVTDHGSCVRACGADSYEMEEDGVRKCKKCEGPCRKVCNGIGIGEFKDSLSINATNIKHFKNCTSISGDLHILPVAFRGDSFTHTPPLDPQELDILKTVKEITGFLLIQAWPENRTDLHAFENLEIIRGRTKQHGQFSLAVVSLNITSLGLRSLKEISDGDVIISGNKNLCYANTINWKKLFGTSGQKTKIISNRGENSCKATGQVCHALCSPEGCWGPEPRDCVSCRNVSRGRECVDKCNLLEGEPREFVENSECIQCHPECLPQAMNITCTGRGPDNCIQCAHYIDGPHCVKTCPAGVMGENNTLVWKYADAGHVCHLCHPNCTYGCTGPGLEGCPTNGPKIPSIATGMVGALLLLLVVALGIGLFMRRRHIVRKRTLRRLLQERELVEPLTPSGEAPNQALLRILKETEFKKIKVLGSGAFGTVYKGLWIPEGEKVKIPVAIKELREATSPKANKEILDEAYVMASVDNPHVCRLLGICLTSTVQLITQLMPFGCLLDYVREHKDNIGSQYLLNWCVQIAKGMNYLEDRRLVHRDLAARNVLVKTPQHVKITDFGLAKLLGAEEKEYHAEGGKVPIKWMALESILHRIYTHQSDVWSYGVTVWELMTFGSKPYDGIPASEISSILEKGERLPQPPICTIDVYMIMVKCWMIDADSRPKFRELIIEFSKMARDPQRYLVIQGDERMHLPSPTDSNFYRALMDEEDMDDVVDADEYLIPQQGFFSSPSTSRTPLLSSLSATSNNSTVACIDRNGLQSCPIKEDSFLQRYSSDPTGALTEDSIDDTFLPVPEYINQSVPKRPAGSVQNPVYHNQPLNPAPSRDPHYQDPHSTAVGNPEYLNTVQPTCVNSTFDSPAHWAQKGSHQISLDNPDYQQDFFPKEAKPNGIFKGSTAENAEYLRVAPQSSEFIGA

> <PDB ID(s) of Target Chain>
1IVO,1M14,1M17,1MOX,1XKK,1Z9I,2GS2,2GS6,2ITW,2ITX,2ITY,2J5E,2J5F,2J6M,2RF9,2RGP,3B2V,3BEL,3GOP,3POZ,3QWQ,3VJO,3W2O,3W2P,3W2Q,3W2R,3W2S,3W32,3W33,4G5J,4I23,4JQ7,4JQ8,4JR3,4JRV,4KRO,4LI5,4RJ4,4RJ5,4RJ6,4RJ7,4RJ8,4TKS,4UIP,4UV7,4WKQ,4WRG,4ZAU,5C8K,5C8M,5C8N,5CAL,5CAN,5CAO,5CAP,5CAQ,5CAS,5CAU,5CAV,5EDP,5EDQ,5EDR,5EM5,5EM6,5EM7,5EM8,5FED,5GNK,5HCX,5HCY,5HCZ,5HIB,5HIC,5UGB,5WB7,5WB8,5Y25,6S89,6S8A

> <UniProt (SwissProt) Recommended Name of Target Chain>
Epidermal growth factor receptor

> <UniProt (SwissProt) Entry Name of Target Chain>
EGFR_HUMAN

> <UniProt (SwissProt) Primary ID of Target Chain>
P00533

> <UniProt (SwissProt) Secondary ID(s) of Target Chain>
O00688,O00732,P06268,Q14225,Q68GS5,Q92795,Q9BZS2,Q9GZX1,Q9H2C9,Q9H3C9,Q9UMD7,Q9UMD8,Q9UMG5

> <UniProt (SwissProt) Alternative ID(s) of Target Chain>


> <UniProt (TrEMBL) Submitted Name of Target Chain>


> <UniProt (TrEMBL) Entry Name of Target Chain>


> <UniProt (TrEMBL) Primary ID of Target Chain>


> <UniProt (TrEMBL) Secondary ID(s) of Target Chain>


> <UniProt (TrEMBL) Alternative ID(s) of Target Chain>


> <training label>
6.52288

> <i_lp_mmshare_version>
54117

> <s_epik_input>
W2NIXTFbY0hdYyhDbClbY0hdYyhGKWMxW05IXWMobltjSF1uMiljKGMyMylbY0hdYyhPW0NIM10pYyhbY0hdMylPW0NIMl1bQ0gyXVtDSF00W0NIMl1bQ0gyXU4oW0NIM10pW0NIMl1bQ0gyXTQ=

> <s_epik_cmdline>
J2VwaWtfcHl0aG9uJywgJy1waHQnLCAnMC4xJywgJy1waCcsICc3LjQnLCAnLXRuJywgJzgnLCAnLW1hJywgJzIwMCcsICctaW1hZScsICc8aW5maWxlLm1hZT4nLCAnLW9tYWUnLCAnPG91dGZpbGUubWFlPic=

> <r_lp_tautomer_probability>
1

> <r_epik_Ionization_Penalty>
  0.0028

> <r_epik_Ionization_Penalty_Charging>
  0.0022

> <r_epik_Ionization_Penalty_Neutral>
  0.0007

> <r_epik_State_Penalty>
  0.0000

> <r_epik_Charging_Adjusted_Penalty>
0.00215668419207172

> <i_epik_Tot_Q>
1

> <i_epik_Tot_abs_Q>
1

> <i_f3d_flags>
0

> <s_lp_Force_Field>
OPLS_2005

> <r_lp_Energy>
34.192159

> <b_lp_Chiralities_Consistent>
1

> <s_lp_Variant>
4-Anilinoquinazoline-1

> <s_i_glide_gridfile>
struct_1_site_1

> <i_i_glide_lignum>
124

> <i_i_glide_rotatable_bonds>
7

> <r_i_docking_score>
-7.99248556233966

> <r_i_glide_ligand_efficiency>
-0.257822114914183

> <r_i_glide_ligand_efficiency_sa>
-0.809917402622962

> <r_i_glide_ligand_efficiency_ln>
-1.80255043457387

> <r_i_glide_gscore>
-7.99248556233966

> <r_i_glide_lipo>
-3.49007275955398

> <r_i_glide_hbond>
-0.32

> <r_i_glide_metal>
0

> <r_i_glide_rewards>
-1.52634329091015

> <r_i_glide_evdw>
-46.2466201782227

> <r_i_glide_ecoul>
-5.65032958984375

> <r_i_glide_erotb>
0.603810935512166

> <r_i_glide_esite>
-0.1

> <r_i_glide_emodel>
-56.8835953600019

> <r_i_glide_energy>
-51.8969497680664

> <r_i_glide_einternal>
3.1850106716156

> <i_i_glide_confnum>
102

> <i_i_glide_posenum>
288

> <r_i_glide_eff_state_penalty>
0

> <IC50 (nM)>
300

> <PMID>
11881999

> <Temp C>
25

> <r_glide_shape_similarity>
0.78898698091507

> <s_m_subgroup_title>
505 training

> <s_m_subgroupid>
pocket_pv

> <b_m_subgroup_collapsed>
0

$$$$
BindingDB_50380465_mol_1
                    3D
 Schrodinger Suite 2021-2.
 47 49  0  0  1  0            999 V2000
   28.4776   -1.0255   52.9876 N   0  0  0  0  0  0
   29.5760   -1.5811   53.5806 C   0  0  0  0  0  0
   29.5836   -2.9031   53.3868 O   0  0  0  0  0  0
   30.4805   -1.0092   54.1709 O   0  0  0  0  0  0
   28.4969   -3.6291   52.8388 C   0  0  0  0  0  0
   20.1496    0.5176   52.1407 C   0  0  0  0  0  0
   19.3335   -0.3881   52.8355 C   0  0  0  0  0  0
   19.9019   -1.2145   53.8312 C   0  0  0  0  0  0
   21.5000    0.6328   52.4883 C   0  0  0  0  0  0
   19.5836    1.2679   51.1399 O   0  0  0  0  0  0
   20.3785    1.5177   49.9936 C   0  0  0  0  0  0
   18.0105   -0.3980   52.4647 O   0  0  0  0  0  0
   17.1093   -1.1903   53.2065 C   0  0  0  0  0  0
   22.0486   -0.1792   53.4971 C   0  0  0  0  0  0
   21.2598   -1.1206   54.1772 C   0  0  0  0  0  0
   21.7982   -1.8963   55.1379 N   0  0  0  0  0  0
   23.0916   -1.7365   55.4040 C   0  0  0  0  0  0
   23.9239   -0.8996   54.8086 N   0  0  0  0  0  0
   23.3969   -0.1050   53.8609 C   0  0  0  0  0  0
   24.1841    0.8622   53.2554 N   0  0  0  0  0  0
   25.5454    1.0252   53.3413 C   0  0  0  0  0  0
   26.3934   -0.0733   53.2595 C   0  0  0  0  0  0
   27.7664    0.1167   53.3219 C   0  0  0  0  0  0
   28.2822    1.4081   53.5267 C   0  0  0  0  0  0
   27.4212    2.5069   53.5493 C   0  0  0  0  0  0
   26.0499    2.3199   53.4350 C   0  0  0  0  0  0
   29.7251    1.6998   53.7015 C   0  0  0  0  0  0
   27.9223   -1.7142   52.5144 H   0  0  0  0  0  0
   28.6897   -4.6965   52.9381 H   0  0  0  0  0  0
   28.3787   -3.3971   51.7815 H   0  0  0  0  0  0
   27.5606   -3.3984   53.3498 H   0  0  0  0  0  0
   19.2973   -1.9246   54.3731 H   0  0  0  0  0  0
   22.1097    1.3469   51.9578 H   0  0  0  0  0  0
   19.7374    1.8486   49.1780 H   0  0  0  0  0  0
   21.1102    2.3043   50.1741 H   0  0  0  0  0  0
   20.8973    0.6187   49.6598 H   0  0  0  0  0  0
   16.0887   -0.9902   52.8766 H   0  0  0  0  0  0
   17.3080   -2.2500   53.0468 H   0  0  0  0  0  0
   17.1590   -0.9749   54.2738 H   0  0  0  0  0  0
   23.5054   -2.3650   56.1786 H   0  0  0  0  0  0
   23.6865    1.6323   52.8489 H   0  0  0  0  0  0
   25.9844   -1.0591   53.0954 H   0  0  0  0  0  0
   27.7988    3.5137   53.6590 H   0  0  0  0  0  0
   25.3983    3.1824   53.4496 H   0  0  0  0  0  0
   29.8856    2.7729   53.6824 H   0  0  0  0  0  0
   30.0713    1.3393   54.6630 H   0  0  0  0  0  0
   30.2904    1.2357   52.8967 H   0  0  0  0  0  0
  1  2  1  0  0  0
  1 23  1  0  0  0
  1 28  1  0  0  0
  2  3  1  0  0  0
  2  4  2  0  0  0
  3  5  1  0  0  0
  5 29  1  0  0  0
  5 30  1  0  0  0
  5 31  1  0  0  0
  6  7  2  0  0  0
  6  9  1  0  0  0
  6 10  1  0  0  0
  7  8  1  0  0  0
  7 12  1  0  0  0
  8 15  2  0  0  0
  8 32  1  0  0  0
  9 14  2  0  0  0
  9 33  1  0  0  0
 10 11  1  0  0  0
 11 34  1  0  0  0
 11 35  1  0  0  0
 11 36  1  0  0  0
 12 13  1  0  0  0
 13 37  1  0  0  0
 13 38  1  0  0  0
 13 39  1  0  0  0
 14 15  1  0  0  0
 14 19  1  0  0  0
 15 16  1  0  0  0
 16 17  2  0  0  0
 17 18  1  0  0  0
 17 40  1  0  0  0
 18 19  2  0  0  0
 19 20  1  0  0  0
 20 21  1  0  0  0
 20 41  1  0  0  0
 21 22  2  0  0  0
 21 26  1  0  0  0
 22 23  1  0  0  0
 22 42  1  0  0  0
 23 24  2  0  0  0
 24 25  1  0  0  0
 24 27  1  0  0  0
 25 26  2  0  0  0
 25 43  1  0  0  0
 26 44  1  0  0  0
 27 45  1  0  0  0
 27 46  1  0  0  0
 27 47  1  0  0  0
M  END
> <s_m_entry_id>
242

> <s_m_entry_name>
pocket_pv.53

> <s_m_Source_Path>
/home/bortolaa/Project/GT/mario-master/docking/set505protein_struct_1_site_1_set505ligs_train

> <s_m_Source_File>
pocket_pv.maegz

> <i_m_Source_File_Index>
53

> <From>
www.bindingDB.org

> <BindingDB Reactant_set_id>
50927749

> <Ligand InChI>
InChI=1S/C19H20N4O4/c1-11-5-6-12(7-14(11)23-19(24)27-4)22-18-13-8-16(25-2)17(26-3)9-15(13)20-10-21-18/h5-10H,1-4H3,(H,23,24)(H,20,21,22)

> <Ligand InChI Key>
ZQHKLPSJKXUYOU-UHFFFAOYSA-N

> <BindingDB MonomerID>
50380465

> <BindingDB Ligand Name>
CHEMBL2018761

> <Target Name Assigned by Curator or DataSource>
Epidermal growth factor receptor

> <Target Source Organism According to Curator or DataSource>
Homo sapiens

> <Ki (nM)>


> <IC50 (nM)>
7200

> <Kd (nM)>


> <EC50 (nM)>


> <kon (M-1-s-1)>


> <koff (s-1)>


> <pH>


> <Temp C>


> <Curation/DataSource>
ChEMBL

> <Article DOI>
10.1021/jm2013453

> <PubChem AID>


> <Patent Number>


> <Authors>
Garofalo, A; Farce, A; Ravez, S; Lemoine, A; Six, P; Chavatte, P; Goossens, L; Depreux, P

> <Institution>
Univ. Lille Nord de France

> <Link to Ligand in BindingDB>
http://www.bindingdb.org/bind/chemsearch/marvin/MolStructure.jsp?monomerid=50380465

> <Link to Ligand-Target Pair in BindingDB>
http://www.bindingdb.org/jsp/dbsearch/PrimarySearch_ki.jsp?energyterm=kJ/mole&tag=r21&monomerid=50380465&enzyme=Epidermal+growth+factor+receptor&column=ki&startPg=0&Increment=50&submit=Search

> <Ligand HET ID in PDB>


> <PDB ID(s) for Ligand-Target Complex>


> <PubChem CID>
56954135

> <PubChem SID>
160859548

> <ChEBI ID of Ligand>


> <ChEMBL ID of Ligand>
CHEMBL2018761

> <DrugBank ID of Ligand>


> <IUPHAR_GRAC ID of Ligand>


> <KEGG ID of Ligand>


> <ZINC ID of Ligand>
ZINC84633130

> <Number of Protein Chains in Target (>
1

> <BindingDB Target Chain Sequence>
MRPSGTAGAALLALLAALCPASRALEEKKVCQGTSNKLTQLGTFEDHFLSLQRMFNNCEVVLGNLEITYVQRNYDLSFLKTIQEVAGYVLIALNTVERIPLENLQIIRGNMYYENSYALAVLSNYDANKTGLKELPMRNLQEILHGAVRFSNNPALCNVESIQWRDIVSSDFLSNMSMDFQNHLGSCQKCDPSCPNGSCWGAGEENCQKLTKIICAQQCSGRCRGKSPSDCCHNQCAAGCTGPRESDCLVCRKFRDEATCKDTCPPLMLYNPTTYQMDVNPEGKYSFGATCVKKCPRNYVVTDHGSCVRACGADSYEMEEDGVRKCKKCEGPCRKVCNGIGIGEFKDSLSINATNIKHFKNCTSISGDLHILPVAFRGDSFTHTPPLDPQELDILKTVKEITGFLLIQAWPENRTDLHAFENLEIIRGRTKQHGQFSLAVVSLNITSLGLRSLKEISDGDVIISGNKNLCYANTINWKKLFGTSGQKTKIISNRGENSCKATGQVCHALCSPEGCWGPEPRDCVSCRNVSRGRECVDKCNLLEGEPREFVENSECIQCHPECLPQAMNITCTGRGPDNCIQCAHYIDGPHCVKTCPAGVMGENNTLVWKYADAGHVCHLCHPNCTYGCTGPGLEGCPTNGPKIPSIATGMVGALLLLLVVALGIGLFMRRRHIVRKRTLRRLLQERELVEPLTPSGEAPNQALLRILKETEFKKIKVLGSGAFGTVYKGLWIPEGEKVKIPVAIKELREATSPKANKEILDEAYVMASVDNPHVCRLLGICLTSTVQLITQLMPFGCLLDYVREHKDNIGSQYLLNWCVQIAKGMNYLEDRRLVHRDLAARNVLVKTPQHVKITDFGLAKLLGAEEKEYHAEGGKVPIKWMALESILHRIYTHQSDVWSYGVTVWELMTFGSKPYDGIPASEISSILEKGERLPQPPICTIDVYMIMVKCWMIDADSRPKFRELIIEFSKMARDPQRYLVIQGDERMHLPSPTDSNFYRALMDEEDMDDVVDADEYLIPQQGFFSSPSTSRTPLLSSLSATSNNSTVACIDRNGLQSCPIKEDSFLQRYSSDPTGALTEDSIDDTFLPVPEYINQSVPKRPAGSVQNPVYHNQPLNPAPSRDPHYQDPHSTAVGNPEYLNTVQPTCVNSTFDSPAHWAQKGSHQISLDNPDYQQDFFPKEAKPNGIFKGSTAENAEYLRVAPQSSEFIGA

> <PDB ID(s) of Target Chain>
1IVO,1M14,1M17,1MOX,1XKK,1Z9I,2GS2,2GS6,2ITW,2ITX,2ITY,2J5E,2J5F,2J6M,2RF9,2RGP,3B2V,3BEL,3GOP,3POZ,3QWQ,3VJO,3W2O,3W2P,3W2Q,3W2R,3W2S,3W32,3W33,4G5J,4I23,4JQ7,4JQ8,4JR3,4JRV,4KRO,4LI5,4RJ4,4RJ5,4RJ6,4RJ7,4RJ8,4TKS,4UIP,4UV7,4WKQ,4WRG,4ZAU,5C8K,5C8M,5C8N,5CAL,5CAN,5CAO,5CAP,5CAQ,5CAS,5CAU,5CAV,5EDP,5EDQ,5EDR,5EM5,5EM6,5EM7,5EM8,5FED,5GNK,5HCX,5HCY,5HCZ,5HIB,5HIC,5UGB,5WB7,5WB8,5Y25,6S89,6S8A

> <UniProt (SwissProt) Recommended Name of Target Chain>
Epidermal growth factor receptor

> <UniProt (SwissProt) Entry Name of Target Chain>
EGFR_HUMAN

> <UniProt (SwissProt) Primary ID of Target Chain>
P00533

> <UniProt (SwissProt) Secondary ID(s) of Target Chain>
O00688,O00732,P06268,Q14225,Q68GS5,Q92795,Q9BZS2,Q9GZX1,Q9H2C9,Q9H3C9,Q9UMD7,Q9UMD8,Q9UMG5

> <UniProt (SwissProt) Alternative ID(s) of Target Chain>


> <UniProt (TrEMBL) Submitted Name of Target Chain>


> <UniProt (TrEMBL) Entry Name of Target Chain>


> <UniProt (TrEMBL) Primary ID of Target Chain>


> <UniProt (TrEMBL) Secondary ID(s) of Target Chain>


> <UniProt (TrEMBL) Alternative ID(s) of Target Chain>


> <training label>
5.14267

> <i_lp_mmshare_version>
54117

> <s_epik_input>
W0NIM11PQyg9TylbTkhdYyhjKFtDSDNdKVtjSF1bY0hdMSlbY0hdYzFbTkhdYzJuW2NIXW5jKGMyMylbY0hdYyhPW0NIM10pYyhbY0hdMylPW0NIM10=

> <s_epik_cmdline>
J2VwaWtfcHl0aG9uJywgJy1waHQnLCAnMC4xJywgJy1waCcsICc3LjQnLCAnLXRuJywgJzgnLCAnLW1hJywgJzIwMCcsICctaW1hZScsICc8aW5maWxlLm1hZT4nLCAnLW9tYWUnLCAnPG91dGZpbGUubWFlPic=

> <r_lp_tautomer_probability>
1

> <r_epik_Ionization_Penalty>
  0.0006

> <r_epik_Ionization_Penalty_Charging>
  0.0000

> <r_epik_Ionization_Penalty_Neutral>
  0.0006

> <r_epik_State_Penalty>
  0.0000

> <r_epik_Charging_Adjusted_Penalty>
0

> <i_epik_Tot_Q>
0

> <i_epik_Tot_abs_Q>
0

> <i_f3d_flags>
0

> <s_lp_Force_Field>
OPLS_2005

> <r_lp_Energy>
24.709106

> <b_lp_Chiralities_Consistent>
1

> <s_lp_Variant>
BindingDB_50380465_mol_1-1

> <s_i_glide_gridfile>
struct_1_site_1

> <i_i_glide_lignum>
30

> <i_i_glide_rotatable_bonds>
7

> <r_i_docking_score>
-7.9863499180687

> <r_i_glide_ligand_efficiency>
-0.295790737706248

> <r_i_glide_ligand_efficiency_sa>
-0.887372212143867

> <r_i_glide_ligand_efficiency_ln>
-1.85909059565779

> <r_i_glide_gscore>
-7.9863499180687

> <r_i_glide_lipo>
-2.70090177255571

> <r_i_glide_hbond>
-0.32

> <r_i_glide_metal>
0

> <r_i_glide_rewards>
-2.51012715975024

> <r_i_glide_evdw>
-41.6707382202148

> <r_i_glide_ecoul>
-6.26496267318726

> <r_i_glide_erotb>
0.567960326226079

> <r_i_glide_esite>
0

> <r_i_glide_emodel>
-48.2833182365228

> <r_i_glide_energy>
-47.9357008934021

> <r_i_glide_einternal>
14.2469959259033

> <i_i_glide_confnum>
16

> <i_i_glide_posenum>
88

> <r_i_glide_eff_state_penalty>
0

> <PMID>
22229669

> <s_epik_Chemistry_Notes>
This compound has an ester and may undergo hydrolysis at high or low pH.

> <r_glide_shape_similarity>
0.850940406322479

> <s_m_subgroup_title>
505 training

> <s_m_subgroupid>
pocket_pv

> <b_m_subgroup_collapsed>
0

$$$$
6-alkoxy-4-anilinoquinazoline
                    3D
 Schrodinger Suite 2021-2.
 58 60  0  0  1  0            999 V2000
   23.4383   -0.0994   53.8705 C   0  0  0  0  0  0
   23.0987   -1.7512   55.4165 C   0  0  0  0  0  0
   23.9423   -0.9051   54.8298 N   0  0  0  0  0  0
   21.8013   -1.9061   55.1460 N   0  0  0  0  0  0
   21.2653   -1.1199   54.1858 C   0  0  0  0  0  0
   22.0696   -0.1681   53.5053 C   0  0  0  0  0  0
   21.5039    0.6527   52.5013 C   0  0  0  0  0  0
   20.1419    0.5282   52.1289 C   0  0  0  0  0  0
   19.3383   -0.4088   52.8205 C   0  0  0  0  0  0
   19.8988   -1.2163   53.8360 C   0  0  0  0  0  0
   24.2862    0.8524   53.2751 N   0  0  0  0  0  0
   25.6829    0.9521   53.3412 C   0  0  0  0  0  0
   27.6765    2.3713   53.4288 C   0  0  0  0  0  0
   26.2740    2.2346   53.3719 C   0  0  0  0  0  0
   26.5128   -0.1913   53.3320 C   0  0  0  0  0  0
   27.9152   -0.0518   53.3810 C   0  0  0  0  0  0
   28.5018    1.2299   53.4394 C   0  0  0  0  0  0
   19.5632    1.2568   51.1005 O   0  0  0  0  0  0
   20.0978    2.5462   50.7710 C   0  0  0  0  0  0
   21.2533    2.5190   49.7319 C   0  0  0  0  0  0
   22.1447    3.8102   49.6708 C   0  0  0  0  0  0
   22.7203    4.3197   51.0372 C   0  0  0  0  0  0
   24.0970    4.9147   50.9886 N   0  3  0  0  0  0
   24.2647    6.2672   50.3706 C   0  0  0  0  0  0
   25.6663    6.8411   50.7267 C   0  0  0  0  0  0
   28.0279    8.1612   49.7443 C   0  0  0  0  0  0
   25.6804    8.2243   48.3874 O   0  0  0  0  0  0
   26.1853    8.3460   49.7677 S   0  0  0  0  0  0
   25.8757    9.5507   50.5622 O   0  0  0  0  0  0
   28.7428   -1.2433   53.3668 C   0  0  0  0  0  0
   29.3725   -2.2890   53.3594 C   0  0  0  0  0  0
   23.5146   -2.3996   56.1729 H   0  0  0  0  0  0
   22.1348    1.3552   51.9912 H   0  0  0  0  0  0
   18.2955   -0.5165   52.5601 H   0  0  0  0  0  0
   19.2715   -1.9236   54.3584 H   0  0  0  0  0  0
   23.8170    1.6253   52.8321 H   0  0  0  0  0  0
   28.1174    3.3569   53.4694 H   0  0  0  0  0  0
   25.6623    3.1254   53.3757 H   0  0  0  0  0  0
   26.0775   -1.1791   53.2802 H   0  0  0  0  0  0
   29.5770    1.3419   53.4830 H   0  0  0  0  0  0
   19.2837    3.1552   50.3762 H   0  0  0  0  0  0
   20.4047    3.0442   51.6917 H   0  0  0  0  0  0
   21.9045    1.6676   49.9163 H   0  0  0  0  0  0
   20.8298    2.3265   48.7452 H   0  0  0  0  0  0
   22.9701    3.6041   48.9877 H   0  0  0  0  0  0
   21.5795    4.6203   49.2069 H   0  0  0  0  0  0
   22.0287    5.0206   51.5074 H   0  0  0  0  0  0
   22.7994    3.4776   51.7219 H   0  0  0  0  0  0
   24.4161    5.0101   51.9526 H   0  0  0  0  0  0
   24.1496    6.1759   49.2897 H   0  0  0  0  0  0
   23.4868    6.9462   50.7239 H   0  0  0  0  0  0
   25.7076    7.1332   51.7756 H   0  0  0  0  0  0
   26.4390    6.0880   50.5704 H   0  0  0  0  0  0
   28.4704    9.0208   49.2428 H   0  0  0  0  0  0
   28.3978    8.1109   50.7696 H   0  0  0  0  0  0
   28.3007    7.2476   49.2162 H   0  0  0  0  0  0
   29.8907   -3.2213   53.3633 H   0  0  0  0  0  0
   24.7276    4.2631   50.5286 H   0  0  0  0  0  0
  1  3  1  0  0  0
  1  6  2  0  0  0
  1 11  1  0  0  0
  2  3  2  0  0  0
  2  4  1  0  0  0
  2 32  1  0  0  0
  4  5  2  0  0  0
  5  6  1  0  0  0
  5 10  1  0  0  0
  6  7  1  0  0  0
  7  8  2  0  0  0
  7 33  1  0  0  0
  8  9  1  0  0  0
  8 18  1  0  0  0
  9 10  2  0  0  0
  9 34  1  0  0  0
 10 35  1  0  0  0
 11 12  1  0  0  0
 11 36  1  0  0  0
 12 14  2  0  0  0
 12 15  1  0  0  0
 13 14  1  0  0  0
 13 17  2  0  0  0
 13 37  1  0  0  0
 14 38  1  0  0  0
 15 16  2  0  0  0
 15 39  1  0  0  0
 16 17  1  0  0  0
 16 30  1  0  0  0
 17 40  1  0  0  0
 18 19  1  0  0  0
 19 20  1  0  0  0
 19 41  1  0  0  0
 19 42  1  0  0  0
 20 21  1  0  0  0
 20 43  1  0  0  0
 20 44  1  0  0  0
 21 22  1  0  0  0
 21 45  1  0  0  0
 21 46  1  0  0  0
 22 23  1  0  0  0
 22 47  1  0  0  0
 22 48  1  0  0  0
 23 24  1  0  0  0
 23 49  1  0  0  0
 23 58  1  0  0  0
 24 25  1  0  0  0
 24 50  1  0  0  0
 24 51  1  0  0  0
 25 28  1  0  0  0
 25 52  1  0  0  0
 25 53  1  0  0  0
 26 28  1  0  0  0
 26 54  1  0  0  0
 26 55  1  0  0  0
 26 56  1  0  0  0
 27 28  2  0  0  0
 28 29  2  0  0  0
 30 31  3  0  0  0
 31 57  1  0  0  0
M  CHG  1  23   1
M  END
> <s_m_entry_id>
243

> <s_m_entry_name>
pocket_pv.54

> <s_m_Source_Path>
/home/bortolaa/Project/GT/mario-master/docking/set505protein_struct_1_site_1_set505ligs_train

> <s_m_Source_File>
pocket_pv.maegz

> <i_m_Source_File_Index>
54

> <From>
www.bindingDB.org

> <BindingDB Reactant_set_id>
8664

> <Ligand InChI>
InChI=1S/C23H26N4O3S/c1-3-18-7-6-8-19(15-18)27-23-21-16-20(9-10-22(21)25-17-26-23)30-13-5-4-11-24-12-14-31(2,28)29/h1,6-10,15-17,24H,4-5,11-14H2,2H3,(H,25,26,27)

> <Ligand InChI Key>
WLLKPDBSPXZCTG-UHFFFAOYSA-N

> <BindingDB MonomerID>
5456

> <BindingDB Ligand Name>
6-alkoxy-4-anilinoquinazoline 8b::N-(3-ethynylphenyl)-6-{4-[(2-methanesulfonylethyl)amino]butoxy}quinazolin-4-amine

> <Target Name Assigned by Curator or DataSource>
Epidermal growth factor receptor

> <Target Source Organism According to Curator or DataSource>
Homo sapiens

> <Ki (nM)>


> <Kd (nM)>


> <EC50 (nM)>


> <kon (M-1-s-1)>


> <koff (s-1)>


> <Curation/DataSource>
Curated from the literature by BindingDB

> <Article DOI>
10.1021/jm061320h

> <PubChem AID>


> <Patent Number>


> <Authors>
Gaul, MD; Guo, Y; Affleck, K; Cockerill, GS; Gilmer, TM; Griffin, RJ; Guntrip, S; Keith, BR; Knight, WB; Mullin, RJ; Murray, DM; Rusnak, DW; Smith, K; Tadepalli, S; Wood, ER; Lackey, K

> <Institution>
GlaxoSmithKline

> <Link to Ligand in BindingDB>
http://www.bindingdb.org/bind/chemsearch/marvin/MolStructure.jsp?monomerid=5456

> <Link to Ligand-Target Pair in BindingDB>
http://www.bindingdb.org/jsp/dbsearch/PrimarySearch_ki.jsp?energyterm=kJ/mole&tag=r21&monomerid=5456&enzyme=Epidermal+growth+factor+receptor&column=ki&startPg=0&Increment=50&submit=Search

> <Ligand HET ID in PDB>


> <PDB ID(s) for Ligand-Target Complex>


> <PubChem CID>
5329489

> <PubChem SID>
8035075

> <ChEBI ID of Ligand>


> <ChEMBL ID of Ligand>


> <DrugBank ID of Ligand>


> <IUPHAR_GRAC ID of Ligand>


> <KEGG ID of Ligand>


> <ZINC ID of Ligand>
ZINC14945051

> <Number of Protein Chains in Target (>
1

> <BindingDB Target Chain Sequence>
MRPSGTAGAALLALLAALCPASRALEEKKVCQGTSNKLTQLGTFEDHFLSLQRMFNNCEVVLGNLEITYVQRNYDLSFLKTIQEVAGYVLIALNTVERIPLENLQIIRGNMYYENSYALAVLSNYDANKTGLKELPMRNLQEILHGAVRFSNNPALCNVESIQWRDIVSSDFLSNMSMDFQNHLGSCQKCDPSCPNGSCWGAGEENCQKLTKIICAQQCSGRCRGKSPSDCCHNQCAAGCTGPRESDCLVCRKFRDEATCKDTCPPLMLYNPTTYQMDVNPEGKYSFGATCVKKCPRNYVVTDHGSCVRACGADSYEMEEDGVRKCKKCEGPCRKVCNGIGIGEFKDSLSINATNIKHFKNCTSISGDLHILPVAFRGDSFTHTPPLDPQELDILKTVKEITGFLLIQAWPENRTDLHAFENLEIIRGRTKQHGQFSLAVVSLNITSLGLRSLKEISDGDVIISGNKNLCYANTINWKKLFGTSGQKTKIISNRGENSCKATGQVCHALCSPEGCWGPEPRDCVSCRNVSRGRECVDKCNLLEGEPREFVENSECIQCHPECLPQAMNITCTGRGPDNCIQCAHYIDGPHCVKTCPAGVMGENNTLVWKYADAGHVCHLCHPNCTYGCTGPGLEGCPTNGPKIPSIATGMVGALLLLLVVALGIGLFMRRRHIVRKRTLRRLLQERELVEPLTPSGEAPNQALLRILKETEFKKIKVLGSGAFGTVYKGLWIPEGEKVKIPVAIKELREATSPKANKEILDEAYVMASVDNPHVCRLLGICLTSTVQLITQLMPFGCLLDYVREHKDNIGSQYLLNWCVQIAKGMNYLEDRRLVHRDLAARNVLVKTPQHVKITDFGLAKLLGAEEKEYHAEGGKVPIKWMALESILHRIYTHQSDVWSYGVTVWELMTFGSKPYDGIPASEISSILEKGERLPQPPICTIDVYMIMVKCWMIDADSRPKFRELIIEFSKMARDPQRYLVIQGDERMHLPSPTDSNFYRALMDEEDMDDVVDADEYLIPQQGFFSSPSTSRTPLLSSLSATSNNSTVACIDRNGLQSCPIKEDSFLQRYSSDPTGALTEDSIDDTFLPVPEYINQSVPKRPAGSVQNPVYHNQPLNPAPSRDPHYQDPHSTAVGNPEYLNTVQPTCVNSTFDSPAHWAQKGSHQISLDNPDYQQDFFPKEAKPNGIFKGSTAENAEYLRVAPQSSEFIGA

> <PDB ID(s) of Target Chain>
1IVO,1M14,1M17,1MOX,1XKK,1Z9I,2GS2,2GS6,2ITW,2ITX,2ITY,2J5E,2J5F,2J6M,2RF9,2RGP,3B2V,3BEL,3GOP,3POZ,3QWQ,3VJO,3W2O,3W2P,3W2Q,3W2R,3W2S,3W32,3W33,4G5J,4I23,4JQ7,4JQ8,4JR3,4JRV,4KRO,4LI5,4RJ4,4RJ5,4RJ6,4RJ7,4RJ8,4TKS,4UIP,4UV7,4WKQ,4WRG,4ZAU,5C8K,5C8M,5C8N,5CAL,5CAN,5CAO,5CAP,5CAQ,5CAS,5CAU,5CAV,5EDP,5EDQ,5EDR,5EM5,5EM6,5EM7,5EM8,5FED,5GNK,5HCX,5HCY,5HCZ,5HIB,5HIC,5UGB,5WB7,5WB8,5Y25,6S89,6S8A

> <UniProt (SwissProt) Recommended Name of Target Chain>
Epidermal growth factor receptor

> <UniProt (SwissProt) Entry Name of Target Chain>
EGFR_HUMAN

> <UniProt (SwissProt) Primary ID of Target Chain>
P00533

> <UniProt (SwissProt) Secondary ID(s) of Target Chain>
O00688,O00732,P06268,Q14225,Q68GS5,Q92795,Q9BZS2,Q9GZX1,Q9H2C9,Q9H3C9,Q9UMD7,Q9UMD8,Q9UMG5

> <UniProt (SwissProt) Alternative ID(s) of Target Chain>


> <UniProt (TrEMBL) Submitted Name of Target Chain>


> <UniProt (TrEMBL) Entry Name of Target Chain>


> <UniProt (TrEMBL) Primary ID of Target Chain>


> <UniProt (TrEMBL) Secondary ID(s) of Target Chain>


> <UniProt (TrEMBL) Alternative ID(s) of Target Chain>


> <training label>
7.95861

> <i_lp_mmshare_version>
54117

> <s_epik_input>
W0NIXSNDYyhbY0hdMSlbY0hdW2NIXVtjSF1jMVtOSF1jKG5bY0hdbjIpYyhjMjMpW2NIXWMoW2NIXVtjSF0zKU9bQ0gyXVtDSDJdW0NIMl1bQ0gyXVtOSF1bQ0gyXVtDSDJdUyg9TykoPU8pW0NIM10=

> <s_epik_cmdline>
J2VwaWtfcHl0aG9uJywgJy1waHQnLCAnMC4xJywgJy1waCcsICc3LjQnLCAnLXRuJywgJzgnLCAnLW1hJywgJzIwMCcsICctaW1hZScsICc8aW5maWxlLm1hZT4nLCAnLW9tYWUnLCAnPG91dGZpbGUubWFlPic=

> <r_lp_tautomer_probability>
0.999978000241998

> <r_epik_Ionization_Penalty>
  0.1421

> <r_epik_Ionization_Penalty_Charging>
  0.1417

> <r_epik_Ionization_Penalty_Neutral>
  0.0004

> <r_epik_State_Penalty>
  0.1310

> <r_epik_Charging_Adjusted_Penalty>
0.272663563840648

> <i_epik_Tot_Q>
1

> <i_epik_Tot_abs_Q>
1

> <i_f3d_flags>
0

> <s_lp_Force_Field>
OPLS_2005

> <r_lp_Energy>
17.75293

> <b_lp_Chiralities_Consistent>
1

> <s_lp_Variant>
6-alkoxy-4-anilinoquinazoline-1

> <s_i_glide_gridfile>
struct_1_site_1

> <i_i_glide_lignum>
223

> <i_i_glide_rotatable_bonds>
12

> <r_i_docking_score>
-7.98075609993606

> <r_i_glide_ligand_efficiency>
-0.257443745159228

> <r_i_glide_ligand_efficiency_sa>
-0.808728799196657

> <r_i_glide_ligand_efficiency_ln>
-1.799905081337

> <r_i_glide_gscore>
-8.11175609993606

> <r_i_glide_lipo>
-3.07579452609405

> <r_i_glide_hbond>
-0.32

> <r_i_glide_metal>
0

> <r_i_glide_rewards>
-1.55822618577963

> <r_i_glide_evdw>
-45.5035552978516

> <r_i_glide_ecoul>
-12.2364530563354

> <r_i_glide_erotb>
1.13636051434206

> <r_i_glide_esite>
-0.183450179061544

> <r_i_glide_emodel>
-65.8498839859797

> <r_i_glide_energy>
-57.740008354187

> <r_i_glide_einternal>
5.20376396179199

> <i_i_glide_confnum>
87

> <i_i_glide_posenum>
343

> <r_i_glide_eff_state_penalty>
0.131

> <IC50 (nM)>
11

> <PMID>
12639547

> <Temp C>
23

> <r_glide_shape_similarity>
0.737848520278931

> <pH>
7.5

> <s_m_subgroup_title>
505 training

> <s_m_subgroupid>
pocket_pv

> <b_m_subgroup_collapsed>
0

$$$$
/home/bortolaa/Project/GT/mario-master/ligands/set505ligs_train.sdf:236
                    3D
 Schrodinger Suite 2021-2.
 57 60  0  0  1  0            999 V2000
   20.1454    1.7345   49.9766 C   0  0  0  0  0  0
   19.1574    2.2819   49.0569 C   0  0  0  0  0  0
   19.5471    3.1395   48.0972 C   0  0  0  0  0  0
   18.6289    3.7271   47.0326 C   0  0  0  0  0  0
   21.3597    1.6921   49.7573 O   0  0  0  0  0  0
   19.5580    1.2641   51.0945 N   0  0  0  0  0  0
   21.8037   -1.9096   55.1474 N   0  0  0  0  0  0
   23.1003   -1.7535   55.4188 C   0  0  0  0  0  0
   23.9454   -0.9069   54.8322 N   0  0  0  0  0  0
   23.4416   -0.1005   53.8724 C   0  0  0  0  0  0
   22.0745   -0.1707   53.5089 C   0  0  0  0  0  0
   21.5135    0.6482   52.5061 C   0  0  0  0  0  0
   20.1545    0.5116   52.1443 C   0  0  0  0  0  0
   19.3235   -0.3958   52.8413 C   0  0  0  0  0  0
   19.8997   -1.2158   53.8490 C   0  0  0  0  0  0
   21.2690   -1.1230   54.1874 C   0  0  0  0  0  0
   17.9856   -0.4195   52.4791 O   0  0  0  0  0  0
   17.0749   -1.1634   53.2725 C   0  0  0  0  0  0
   24.2884    0.8506   53.2741 N   0  0  0  0  0  0
   25.6854    0.9517   53.3411 C   0  0  0  0  0  0
   26.5147   -0.1912   53.3308 C   0  0  0  0  0  0
   27.9168   -0.0518   53.3812 C   0  0  0  0  0  0
   28.5040    1.2305   53.4422 C   0  0  0  0  0  0
   27.6788    2.3723   53.4308 C   0  0  0  0  0  0
   26.2756    2.2354   53.3723 C   0  0  0  0  0  0
   28.7434   -1.2424   53.3669 C   0  0  0  0  0  0
   29.3742   -2.2896   53.3630 C   0  0  0  0  0  0
   19.2176    3.7003   45.6770 N   0  0  1  0  0  0
   18.1910    4.1280   44.7178 C   0  0  0  0  0  0
   20.3905    4.5891   45.5455 C   0  0  0  0  0  0
   21.7914    4.0312   45.7888 C   0  0  0  0  0  0
   21.3453    4.3541   44.3782 C   0  0  0  0  0  0
   18.1212    1.9840   49.1317 H   0  0  0  0  0  0
   20.5780    3.4511   48.0536 H   0  0  0  0  0  0
   17.6960    3.1600   47.0344 H   0  0  0  0  0  0
   18.3791    4.7528   47.3065 H   0  0  0  0  0  0
   18.5453    1.2908   51.1228 H   0  0  0  0  0  0
   23.5132   -2.4021   56.1748 H   0  0  0  0  0  0
   22.1328    1.3724   51.9987 H   0  0  0  0  0  0
   19.2988   -1.9231   54.3950 H   0  0  0  0  0  0
   16.0575   -0.9895   52.9215 H   0  0  0  0  0  0
   17.2792   -2.2323   53.2004 H   0  0  0  0  0  0
   17.1153   -0.8671   54.3196 H   0  0  0  0  0  0
   23.8212    1.6275   52.8303 H   0  0  0  0  0  0
   26.0809   -1.1816   53.2819 H   0  0  0  0  0  0
   29.5793    1.3447   53.4863 H   0  0  0  0  0  0
   28.1151    3.3584   53.4696 H   0  0  0  0  0  0
   25.6634    3.1267   53.3675 H   0  0  0  0  0  0
   29.8819   -3.2308   53.3784 H   0  0  0  0  0  0
   18.5742    4.0934   43.6981 H   0  0  0  0  0  0
   17.3266    3.4642   44.7668 H   0  0  0  0  0  0
   17.8565    5.1447   44.9272 H   0  0  0  0  0  0
   20.2587    5.6384   45.8104 H   0  0  0  0  0  0
   22.5176    4.6961   46.2539 H   0  0  0  0  0  0
   21.8987    2.9805   46.0520 H   0  0  0  0  0  0
   21.1494    3.5133   43.7160 H   0  0  0  0  0  0
   21.7901    5.2251   43.9037 H   0  0  0  0  0  0
  1  2  1  0  0  0
  1  5  2  0  0  0
  1  6  1  0  0  0
  2  3  2  0  0  0
  2 33  1  0  0  0
  3  4  1  0  0  0
  3 34  1  0  0  0
  4 28  1  0  0  0
  4 35  1  0  0  0
  4 36  1  0  0  0
  6 13  1  0  0  0
  6 37  1  0  0  0
  7  8  1  0  0  0
  7 16  2  0  0  0
  8  9  2  0  0  0
  8 38  1  0  0  0
  9 10  1  0  0  0
 10 11  2  0  0  0
 10 19  1  0  0  0
 11 12  1  0  0  0
 11 16  1  0  0  0
 12 13  2  0  0  0
 12 39  1  0  0  0
 13 14  1  0  0  0
 14 15  2  0  0  0
 14 17  1  0  0  0
 15 16  1  0  0  0
 15 40  1  0  0  0
 17 18  1  0  0  0
 18 41  1  0  0  0
 18 42  1  0  0  0
 18 43  1  0  0  0
 19 20  1  0  0  0
 19 44  1  0  0  0
 20 21  1  0  0  0
 20 25  2  0  0  0
 21 22  2  0  0  0
 21 45  1  0  0  0
 22 23  1  0  0  0
 22 26  1  0  0  0
 23 24  2  0  0  0
 23 46  1  0  0  0
 24 25  1  0  0  0
 24 47  1  0  0  0
 25 48  1  0  0  0
 26 27  3  0  0  0
 27 49  1  0  0  0
 28 29  1  0  0  0
 28 30  1  0  0  0
 29 50  1  0  0  0
 29 51  1  0  0  0
 29 52  1  0  0  0
 30 31  1  0  0  0
 30 32  1  0  0  0
 30 53  1  0  0  0
 31 32  1  0  0  0
 31 54  1  0  0  0
 31 55  1  0  0  0
 32 56  1  0  0  0
 32 57  1  0  0  0
M  END
> <s_m_entry_id>
244

> <s_m_entry_name>
pocket_pv.55

> <s_m_Source_Path>
/home/bortolaa/Project/GT/mario-master/docking/set505protein_struct_1_site_1_set505ligs_train

> <s_m_Source_File>
pocket_pv.maegz

> <i_m_Source_File_Index>
55

> <From>
www.bindingDB.org

> <BindingDB Reactant_set_id>
50419135

> <Ligand InChI>
InChI=1S/C25H25N5O2/c1-4-17-7-5-8-18(13-17)28-25-20-14-22(23(32-3)15-21(20)26-16-27-25)29-24(31)9-6-12-30(2)19-10-11-19/h1,5-9,13-16,19H,10-12H2,2-3H3,(H,29,31)(H,26,27,28)/b9-6+

> <Ligand InChI Key>
RUQDSCKLVMLTGG-RMKNXTFCSA-N

> <BindingDB MonomerID>
50123161

> <BindingDB Ligand Name>
CHEMBL3622674

> <Target Name Assigned by Curator or DataSource>
Epidermal growth factor receptor

> <Target Source Organism According to Curator or DataSource>
Homo sapiens

> <Ki (nM)>


> <Kd (nM)>


> <EC50 (nM)>


> <kon (M-1-s-1)>


> <koff (s-1)>


> <pH>


> <Temp C>


> <Curation/DataSource>
ChEMBL

> <Article DOI>
10.1016/j.ejmech.2015.08.026

> <PubChem AID>


> <Patent Number>


> <Authors>
Zhang, L; Yang, Y; Zhou, H; Zheng, Q; Li, Y; Zheng, S; Zhao, S; Chen, D; Fan, C

> <Institution>
Qilu Pharmaceutical Co, Ltd

> <Link to Ligand in BindingDB>
http://www.bindingdb.org/bind/chemsearch/marvin/MolStructure.jsp?monomerid=50123161

> <Link to Ligand-Target Pair in BindingDB>
http://www.bindingdb.org/jsp/dbsearch/PrimarySearch_ki.jsp?energyterm=kJ/mole&tag=r21&monomerid=50123161&enzyme=Epidermal+growth+factor+receptor&column=ki&startPg=0&Increment=50&submit=Search

> <Ligand HET ID in PDB>


> <PDB ID(s) for Ligand-Target Complex>


> <PubChem CID>
122191956

> <PubChem SID>
321901894

> <ChEBI ID of Ligand>


> <ChEMBL ID of Ligand>
CHEMBL3622674

> <DrugBank ID of Ligand>


> <IUPHAR_GRAC ID of Ligand>


> <KEGG ID of Ligand>


> <ZINC ID of Ligand>


> <Number of Protein Chains in Target (>
1

> <BindingDB Target Chain Sequence>
MRPSGTAGAALLALLAALCPASRALEEKKVCQGTSNKLTQLGTFEDHFLSLQRMFNNCEVVLGNLEITYVQRNYDLSFLKTIQEVAGYVLIALNTVERIPLENLQIIRGNMYYENSYALAVLSNYDANKTGLKELPMRNLQEILHGAVRFSNNPALCNVESIQWRDIVSSDFLSNMSMDFQNHLGSCQKCDPSCPNGSCWGAGEENCQKLTKIICAQQCSGRCRGKSPSDCCHNQCAAGCTGPRESDCLVCRKFRDEATCKDTCPPLMLYNPTTYQMDVNPEGKYSFGATCVKKCPRNYVVTDHGSCVRACGADSYEMEEDGVRKCKKCEGPCRKVCNGIGIGEFKDSLSINATNIKHFKNCTSISGDLHILPVAFRGDSFTHTPPLDPQELDILKTVKEITGFLLIQAWPENRTDLHAFENLEIIRGRTKQHGQFSLAVVSLNITSLGLRSLKEISDGDVIISGNKNLCYANTINWKKLFGTSGQKTKIISNRGENSCKATGQVCHALCSPEGCWGPEPRDCVSCRNVSRGRECVDKCNLLEGEPREFVENSECIQCHPECLPQAMNITCTGRGPDNCIQCAHYIDGPHCVKTCPAGVMGENNTLVWKYADAGHVCHLCHPNCTYGCTGPGLEGCPTNGPKIPSIATGMVGALLLLLVVALGIGLFMRRRHIVRKRTLRRLLQERELVEPLTPSGEAPNQALLRILKETEFKKIKVLGSGAFGTVYKGLWIPEGEKVKIPVAIKELREATSPKANKEILDEAYVMASVDNPHVCRLLGICLTSTVQLITQLMPFGCLLDYVREHKDNIGSQYLLNWCVQIAKGMNYLEDRRLVHRDLAARNVLVKTPQHVKITDFGLAKLLGAEEKEYHAEGGKVPIKWMALESILHRIYTHQSDVWSYGVTVWELMTFGSKPYDGIPASEISSILEKGERLPQPPICTIDVYMIMVKCWMIDADSRPKFRELIIEFSKMARDPQRYLVIQGDERMHLPSPTDSNFYRALMDEEDMDDVVDADEYLIPQQGFFSSPSTSRTPLLSSLSATSNNSTVACIDRNGLQSCPIKEDSFLQRYSSDPTGALTEDSIDDTFLPVPEYINQSVPKRPAGSVQNPVYHNQPLNPAPSRDPHYQDPHSTAVGNPEYLNTVQPTCVNSTFDSPAHWAQKGSHQISLDNPDYQQDFFPKEAKPNGIFKGSTAENAEYLRVAPQSSEFIGA

> <PDB ID(s) of Target Chain>
1IVO,1M14,1M17,1MOX,1XKK,1Z9I,2GS2,2GS6,2ITW,2ITX,2ITY,2J5E,2J5F,2J6M,2RF9,2RGP,3B2V,3BEL,3GOP,3POZ,3QWQ,3VJO,3W2O,3W2P,3W2Q,3W2R,3W2S,3W32,3W33,4G5J,4I23,4JQ7,4JQ8,4JR3,4JRV,4KRO,4LI5,4RJ4,4RJ5,4RJ6,4RJ7,4RJ8,4TKS,4UIP,4UV7,4WKQ,4WRG,4ZAU,5C8K,5C8M,5C8N,5CAL,5CAN,5CAO,5CAP,5CAQ,5CAS,5CAU,5CAV,5EDP,5EDQ,5EDR,5EM5,5EM6,5EM7,5EM8,5FED,5GNK,5HCX,5HCY,5HCZ,5HIB,5HIC,5UGB,5WB7,5WB8,5Y25,6S89,6S8A

> <UniProt (SwissProt) Recommended Name of Target Chain>
Epidermal growth factor receptor

> <UniProt (SwissProt) Entry Name of Target Chain>
EGFR_HUMAN

> <UniProt (SwissProt) Primary ID of Target Chain>
P00533

> <UniProt (SwissProt) Secondary ID(s) of Target Chain>
O00688,O00732,P06268,Q14225,Q68GS5,Q92795,Q9BZS2,Q9GZX1,Q9H2C9,Q9H3C9,Q9UMD7,Q9UMD8,Q9UMG5

> <UniProt (SwissProt) Alternative ID(s) of Target Chain>


> <UniProt (TrEMBL) Submitted Name of Target Chain>


> <UniProt (TrEMBL) Entry Name of Target Chain>


> <UniProt (TrEMBL) Primary ID of Target Chain>


> <UniProt (TrEMBL) Secondary ID(s) of Target Chain>


> <UniProt (TrEMBL) Alternative ID(s) of Target Chain>


> <training label>
8.48149

> <i_lp_mmshare_version>
54117

> <s_epik_input>
W0NIMl0xW0NIMl1bQ0hdMU4oW0NIM10pW0NIMl1cW0NIXT1bQ0hdXEMoPU8pW05IXWMoW2NIXTIpYyhPW0NIM10pW2NIXWMoYzIzKW5bY0hdbmMzW05IXWM0W2NIXWMoQyNbQ0hdKVtjSF1bY0hdW2NIXTQ=

> <s_epik_cmdline>
J2VwaWtfcHl0aG9uJywgJy1waHQnLCAnMC4xJywgJy1waCcsICc3LjQnLCAnLXRuJywgJzgnLCAnLW1hJywgJzIwMCcsICctaW1hZScsICc8aW5maWxlLm1hZT4nLCAnLW9tYWUnLCAnPG91dGZpbGUubWFlPic=

> <r_lp_tautomer_probability>
1

> <r_epik_Ionization_Penalty>
  0.0245

> <r_epik_Ionization_Penalty_Charging>
  0.0000

> <r_epik_Ionization_Penalty_Neutral>
  0.0245

> <r_epik_State_Penalty>
  0.0000

> <r_epik_Charging_Adjusted_Penalty>
0

> <i_epik_Tot_Q>
0

> <i_epik_Tot_abs_Q>
0

> <i_f3d_flags>
0

> <s_lp_Force_Field>
OPLS_2005

> <r_lp_Energy>
31.006087

> <b_lp_Chiralities_Consistent>
1

> <s_lp_Variant>
/home/bortolaa/Project/GT/mario-master/ligands/set505ligs_train.sdf:236-1

> <s_i_glide_gridfile>
struct_1_site_1

> <i_i_glide_lignum>
262

> <i_i_glide_rotatable_bonds>
10

> <r_i_docking_score>
-7.97950040262355

> <r_i_glide_ligand_efficiency>
-0.249359387581986

> <r_i_glide_ligand_efficiency_sa>
-0.791666707417012

> <r_i_glide_ligand_efficiency_ln>
-1.78682765311332

> <r_i_glide_gscore>
-7.97950040262355

> <r_i_glide_lipo>
-3.42244597465796

> <r_i_glide_hbond>
-0.32

> <r_i_glide_metal>
0

> <r_i_glide_rewards>
-1.76872380212388

> <r_i_glide_evdw>
-48.2181167602539

> <r_i_glide_ecoul>
-6.17724370956421

> <r_i_glide_erotb>
0.869161768605612

> <r_i_glide_esite>
0

> <r_i_glide_emodel>
-59.3098077550117

> <r_i_glide_energy>
-54.3953604698181

> <r_i_glide_einternal>
5.12118005752563

> <i_i_glide_confnum>
202

> <i_i_glide_posenum>
336

> <r_i_glide_eff_state_penalty>
0

> <IC50 (nM)>
3.3

> <PMID>
26310890

> <r_glide_shape_similarity>
0.793403089046478

> <s_m_subgroup_title>
505 training

> <s_m_subgroupid>
pocket_pv

> <b_m_subgroup_collapsed>
0

$$$$
4-Anilinoquinazoline
                    3D
 Schrodinger Suite 2021-2.
 55 58  0  0  1  0            999 V2000
   23.4478   -0.0983   53.8726 C   0  0  0  0  0  0
   23.0919   -1.7515   55.4243 C   0  0  0  0  0  0
   21.2710   -1.1116   54.1841 C   0  0  0  0  0  0
   22.0796   -0.1588   53.5019 C   0  0  0  0  0  0
   21.5254    0.6538   52.4863 C   0  0  0  0  0  0
   20.1584    0.5324   52.1353 C   0  0  0  0  0  0
   19.3357   -0.3837   52.8342 C   0  0  0  0  0  0
   19.9072   -1.2095   53.8408 C   0  0  0  0  0  0
   23.9321   -0.9047   54.8446 N   0  0  0  0  0  0
   21.7987   -1.9052   55.1443 N   0  0  0  0  0  0
   25.7732    0.4966   53.2025 C   0  0  0  0  0  0
   28.1080    1.1747   53.5539 C   0  0  0  0  0  0
   26.7352    1.5116   53.4383 C   0  0  0  0  0  0
   26.2188   -0.8317   52.9759 C   0  0  0  0  0  0
   28.5076   -0.1804   53.4362 C   0  0  0  0  0  0
   26.3331    2.7899   53.6220 F   0  0  0  0  0  0
   24.3869    0.7550   53.2537 N   0  0  0  0  0  0
   24.0669    1.6626   52.9402 H   0  0  0  0  0  0
   18.0048   -0.4175   52.4681 O   0  0  0  0  0  0
   19.5855    1.2811   51.1232 O   0  0  0  0  0  0
   20.3854    1.5558   49.9742 C   0  0  0  0  0  0
   17.1790   -1.3964   53.0758 C   0  0  0  0  0  0
   27.5741   -1.1760   53.1091 C   0  0  0  0  0  0
   15.7442   -1.2856   52.5381 C   0  0  0  0  0  0
   14.9778   -0.0553   53.0737 C   0  0  0  0  0  0
   12.6631    0.8730   53.6874 C   0  0  0  0  0  0
   14.3590    2.4098   52.7282 C   0  0  0  0  0  0
   15.2025    1.2102   52.2071 C   0  0  0  0  0  0
   13.4623   -0.3538   53.1844 C   0  0  0  0  0  0
   12.9099    2.0620   52.8207 N   0  3  0  0  0  0
   30.2886   -0.7364   53.7737 Br  0  0  0  0  0  0
   23.5054   -2.4056   56.1757 H   0  0  0  0  0  0
   22.1510    1.3636   51.9673 H   0  0  0  0  0  0
   19.3127   -1.9230   54.3891 H   0  0  0  0  0  0
   28.8361    1.9383   53.7885 H   0  0  0  0  0  0
   25.5081   -1.6165   52.7634 H   0  0  0  0  0  0
   19.7428    1.8808   49.1564 H   0  0  0  0  0  0
   21.1021    2.3536   50.1717 H   0  0  0  0  0  0
   20.9242    0.6672   49.6394 H   0  0  0  0  0  0
   17.1724   -1.2806   54.1612 H   0  0  0  0  0  0
   17.5698   -2.3902   52.8526 H   0  0  0  0  0  0
   27.8862   -2.2053   53.0041 H   0  0  0  0  0  0
   15.2224   -2.1874   52.8609 H   0  0  0  0  0  0
   15.7358   -1.3127   51.4478 H   0  0  0  0  0  0
   15.3260    0.1497   54.0856 H   0  0  0  0  0  0
   11.5950    0.6529   53.6988 H   0  0  0  0  0  0
   12.9486    1.1154   54.7121 H   0  0  0  0  0  0
   14.4808    3.2732   52.0732 H   0  0  0  0  0  0
   14.6886    2.7148   53.7220 H   0  0  0  0  0  0
   14.9232    0.9990   51.1739 H   0  0  0  0  0  0
   16.2582    1.4810   52.1802 H   0  0  0  0  0  0
   13.2951   -1.1929   53.8613 H   0  0  0  0  0  0
   13.0770   -0.6636   52.2119 H   0  0  0  0  0  0
   12.5541    1.8703   51.8879 H   0  0  0  0  0  0
   12.3951    2.8588   53.1917 H   0  0  0  0  0  0
  1  4  2  0  0  0
  1  9  1  0  0  0
  1 17  1  0  0  0
  2  9  2  0  0  0
  2 10  1  0  0  0
  2 32  1  0  0  0
  3  4  1  0  0  0
  3  8  1  0  0  0
  3 10  2  0  0  0
  4  5  1  0  0  0
  5  6  2  0  0  0
  5 33  1  0  0  0
  6  7  1  0  0  0
  6 20  1  0  0  0
  7  8  2  0  0  0
  7 19  1  0  0  0
  8 34  1  0  0  0
 11 13  2  0  0  0
 11 14  1  0  0  0
 11 17  1  0  0  0
 12 13  1  0  0  0
 12 15  2  0  0  0
 12 35  1  0  0  0
 13 16  1  0  0  0
 14 23  2  0  0  0
 14 36  1  0  0  0
 15 23  1  0  0  0
 15 31  1  0  0  0
 17 18  1  0  0  0
 19 22  1  0  0  0
 20 21  1  0  0  0
 21 37  1  0  0  0
 21 38  1  0  0  0
 21 39  1  0  0  0
 22 24  1  0  0  0
 22 40  1  0  0  0
 22 41  1  0  0  0
 23 42  1  0  0  0
 24 25  1  0  0  0
 24 43  1  0  0  0
 24 44  1  0  0  0
 25 28  1  0  0  0
 25 29  1  0  0  0
 25 45  1  0  0  0
 26 29  1  0  0  0
 26 30  1  0  0  0
 26 46  1  0  0  0
 26 47  1  0  0  0
 27 28  1  0  0  0
 27 30  1  0  0  0
 27 48  1  0  0  0
 27 49  1  0  0  0
 28 50  1  0  0  0
 28 51  1  0  0  0
 29 52  1  0  0  0
 29 53  1  0  0  0
 30 54  1  0  0  0
 30 55  1  0  0  0
M  CHG  1  30   1
M  END
> <s_m_entry_id>
245

> <s_m_entry_name>
pocket_pv.56

> <s_m_Source_Path>
/home/bortolaa/Project/GT/mario-master/docking/set505protein_struct_1_site_1_set505ligs_train

> <s_m_Source_File>
pocket_pv.maegz

> <i_m_Source_File_Index>
56

> <From>
www.bindingDB.org

> <BindingDB Reactant_set_id>
7094

> <Ligand InChI>
InChI=1S/C22H24BrFN4O2/c1-29-20-11-16-19(12-21(20)30-9-6-14-4-7-25-8-5-14)26-13-27-22(16)28-18-3-2-15(23)10-17(18)24/h2-3,10-14,25H,4-9H2,1H3,(H,26,27,28)

> <Ligand InChI Key>
ZESRALQQFCOMOY-UHFFFAOYSA-N

> <BindingDB MonomerID>
4681

> <BindingDB Ligand Name>
4-Anilinoquinazoline 28::N-(4-Bromo-2-fluorophenyl)-6-methoxy-7-(piperidin-4-ylmethoxy)quinazolin-4-amine::N-(4-bromo-2-fluorophenyl)-6-methoxy-7-[2-(piperidin-4-yl)ethoxy]quinazolin-4-amine

> <Target Name Assigned by Curator or DataSource>
Epidermal growth factor receptor

> <Target Source Organism According to Curator or DataSource>
Homo sapiens

> <Ki (nM)>


> <Kd (nM)>


> <EC50 (nM)>


> <kon (M-1-s-1)>


> <koff (s-1)>


> <pH>


> <Curation/DataSource>
Curated from the literature by BindingDB

> <Article DOI>
10.1021/jm011022e

> <PubChem AID>


> <Patent Number>


> <Authors>
Hennequin, LF; Stokes, ES; Thomas, AP; Johnstone, C; Ple, PA; Ogilvie, DJ; Dukes, M; Wedge, SR; Kendrew, J; Curwen, JO

> <Institution>
AstraZeneca

> <Link to Ligand in BindingDB>
http://www.bindingdb.org/bind/chemsearch/marvin/MolStructure.jsp?monomerid=4681

> <Link to Ligand-Target Pair in BindingDB>
http://www.bindingdb.org/jsp/dbsearch/PrimarySearch_ki.jsp?energyterm=kJ/mole&tag=r21&monomerid=4681&enzyme=Epidermal+growth+factor+receptor&column=ki&startPg=0&Increment=50&submit=Search

> <Ligand HET ID in PDB>


> <PDB ID(s) for Ligand-Target Complex>


> <PubChem CID>
5329054

> <PubChem SID>
8034338

> <ChEBI ID of Ligand>


> <ChEMBL ID of Ligand>


> <DrugBank ID of Ligand>


> <IUPHAR_GRAC ID of Ligand>


> <KEGG ID of Ligand>


> <ZINC ID of Ligand>
ZINC13472798

> <Number of Protein Chains in Target (>
1

> <BindingDB Target Chain Sequence>
MRPSGTAGAALLALLAALCPASRALEEKKVCQGTSNKLTQLGTFEDHFLSLQRMFNNCEVVLGNLEITYVQRNYDLSFLKTIQEVAGYVLIALNTVERIPLENLQIIRGNMYYENSYALAVLSNYDANKTGLKELPMRNLQEILHGAVRFSNNPALCNVESIQWRDIVSSDFLSNMSMDFQNHLGSCQKCDPSCPNGSCWGAGEENCQKLTKIICAQQCSGRCRGKSPSDCCHNQCAAGCTGPRESDCLVCRKFRDEATCKDTCPPLMLYNPTTYQMDVNPEGKYSFGATCVKKCPRNYVVTDHGSCVRACGADSYEMEEDGVRKCKKCEGPCRKVCNGIGIGEFKDSLSINATNIKHFKNCTSISGDLHILPVAFRGDSFTHTPPLDPQELDILKTVKEITGFLLIQAWPENRTDLHAFENLEIIRGRTKQHGQFSLAVVSLNITSLGLRSLKEISDGDVIISGNKNLCYANTINWKKLFGTSGQKTKIISNRGENSCKATGQVCHALCSPEGCWGPEPRDCVSCRNVSRGRECVDKCNLLEGEPREFVENSECIQCHPECLPQAMNITCTGRGPDNCIQCAHYIDGPHCVKTCPAGVMGENNTLVWKYADAGHVCHLCHPNCTYGCTGPGLEGCPTNGPKIPSIATGMVGALLLLLVVALGIGLFMRRRHIVRKRTLRRLLQERELVEPLTPSGEAPNQALLRILKETEFKKIKVLGSGAFGTVYKGLWIPEGEKVKIPVAIKELREATSPKANKEILDEAYVMASVDNPHVCRLLGICLTSTVQLITQLMPFGCLLDYVREHKDNIGSQYLLNWCVQIAKGMNYLEDRRLVHRDLAARNVLVKTPQHVKITDFGLAKLLGAEEKEYHAEGGKVPIKWMALESILHRIYTHQSDVWSYGVTVWELMTFGSKPYDGIPASEISSILEKGERLPQPPICTIDVYMIMVKCWMIDADSRPKFRELIIEFSKMARDPQRYLVIQGDERMHLPSPTDSNFYRALMDEEDMDDVVDADEYLIPQQGFFSSPSTSRTPLLSSLSATSNNSTVACIDRNGLQSCPIKEDSFLQRYSSDPTGALTEDSIDDTFLPVPEYINQSVPKRPAGSVQNPVYHNQPLNPAPSRDPHYQDPHSTAVGNPEYLNTVQPTCVNSTFDSPAHWAQKGSHQISLDNPDYQQDFFPKEAKPNGIFKGSTAENAEYLRVAPQSSEFIGA

> <PDB ID(s) of Target Chain>
1IVO,1M14,1M17,1MOX,1XKK,1Z9I,2GS2,2GS6,2ITW,2ITX,2ITY,2J5E,2J5F,2J6M,2RF9,2RGP,3B2V,3BEL,3GOP,3POZ,3QWQ,3VJO,3W2O,3W2P,3W2Q,3W2R,3W2S,3W32,3W33,4G5J,4I23,4JQ7,4JQ8,4JR3,4JRV,4KRO,4LI5,4RJ4,4RJ5,4RJ6,4RJ7,4RJ8,4TKS,4UIP,4UV7,4WKQ,4WRG,4ZAU,5C8K,5C8M,5C8N,5CAL,5CAN,5CAO,5CAP,5CAQ,5CAS,5CAU,5CAV,5EDP,5EDQ,5EDR,5EM5,5EM6,5EM7,5EM8,5FED,5GNK,5HCX,5HCY,5HCZ,5HIB,5HIC,5UGB,5WB7,5WB8,5Y25,6S89,6S8A

> <UniProt (SwissProt) Recommended Name of Target Chain>
Epidermal growth factor receptor

> <UniProt (SwissProt) Entry Name of Target Chain>
EGFR_HUMAN

> <UniProt (SwissProt) Primary ID of Target Chain>
P00533

> <UniProt (SwissProt) Secondary ID(s) of Target Chain>
O00688,O00732,P06268,Q14225,Q68GS5,Q92795,Q9BZS2,Q9GZX1,Q9H2C9,Q9H3C9,Q9UMD7,Q9UMD8,Q9UMG5

> <UniProt (SwissProt) Alternative ID(s) of Target Chain>


> <UniProt (TrEMBL) Submitted Name of Target Chain>


> <UniProt (TrEMBL) Entry Name of Target Chain>


> <UniProt (TrEMBL) Primary ID of Target Chain>


> <UniProt (TrEMBL) Secondary ID(s) of Target Chain>


> <UniProt (TrEMBL) Alternative ID(s) of Target Chain>


> <training label>
6.69897

> <i_lp_mmshare_version>
54117

> <s_epik_input>
W2NIXTFbY0hdYyhCcilbY0hdYyhGKWMxW05IXWMobltjSF1uMiljKGMyMylbY0hdYyhPW0NIM10pYyhbY0hdMylPW0NIMl1bQ0gyXVtDSF00W0NIMl1bQ0gyXVtOSF1bQ0gyXVtDSDJdNA==

> <s_epik_cmdline>
J2VwaWtfcHl0aG9uJywgJy1waHQnLCAnMC4xJywgJy1waCcsICc3LjQnLCAnLXRuJywgJzgnLCAnLW1hJywgJzIwMCcsICctaW1hZScsICc8aW5maWxlLm1hZT4nLCAnLW9tYWUnLCAnPG91dGZpbGUubWFlPic=

> <r_lp_tautomer_probability>
1

> <r_epik_Ionization_Penalty>
  0.0013

> <r_epik_Ionization_Penalty_Charging>
  0.0007

> <r_epik_Ionization_Penalty_Neutral>
  0.0007

> <r_epik_State_Penalty>
  0.0000

> <r_epik_Charging_Adjusted_Penalty>
0.000677864209909408

> <i_epik_Tot_Q>
1

> <i_epik_Tot_abs_Q>
1

> <i_f3d_flags>
0

> <s_lp_Force_Field>
OPLS_2005

> <r_lp_Energy>
32.451425

> <b_lp_Chiralities_Consistent>
1

> <s_lp_Variant>
4-Anilinoquinazoline-1

> <s_i_glide_gridfile>
struct_1_site_1

> <i_i_glide_lignum>
136

> <i_i_glide_rotatable_bonds>
7

> <r_i_docking_score>
-7.94842778262096

> <r_i_glide_ligand_efficiency>
-0.264947592754032

> <r_i_glide_ligand_efficiency_sa>
-0.823253771646204

> <r_i_glide_ligand_efficiency_ln>
-1.80596939726869

> <r_i_glide_gscore>
-7.94842778262096

> <r_i_glide_lipo>
-3.51735205086182

> <r_i_glide_hbond>
-0.32

> <r_i_glide_metal>
0

> <r_i_glide_rewards>
-1.30168114889839

> <r_i_glide_evdw>
-46.0481262207031

> <r_i_glide_ecoul>
-5.66265296936035

> <r_i_glide_erotb>
0.446173529062593

> <r_i_glide_esite>
-0.103763855484128

> <r_i_glide_emodel>
-60.3539374090095

> <r_i_glide_energy>
-51.7107791900635

> <r_i_glide_einternal>
2.34906554222107

> <i_i_glide_confnum>
63

> <i_i_glide_posenum>
365

> <r_i_glide_eff_state_penalty>
0

> <IC50 (nM)>
200

> <PMID>
11881999

> <Temp C>
25

> <r_glide_shape_similarity>
0.803742110729218

> <s_m_subgroup_title>
505 training

> <s_m_subgroupid>
pocket_pv

> <b_m_subgroup_collapsed>
0

$$$$
BindingDB_50290633_mol_1
                    3D
 Schrodinger Suite 2021-2.
 40 43  0  0  1  0            999 V2000
   24.9539   -0.4511   53.0879 N   0  0  0  0  0  0
   23.7718   -0.6485   53.8437 C   0  0  0  0  0  0
   22.4315   -0.3799   53.4161 C   0  0  0  0  0  0
   21.4018   -0.9782   54.1839 C   0  0  0  0  0  0
   25.7797    0.6506   53.2342 C   0  0  0  0  0  0
   22.0657    0.3938   52.2924 C   0  0  0  0  0  0
   23.9878   -1.2575   55.0170 N   0  0  0  0  0  0
   20.0601   -0.8544   53.7960 C   0  0  0  0  0  0
   25.9524   -1.5635   53.0663 C   0  0  0  0  0  0
   20.6978    0.5543   51.9360 C   0  0  0  0  0  0
   19.6972   -0.0852   52.6784 C   0  0  0  0  0  0
   21.6867   -1.6793   55.2868 N   0  0  0  0  0  0
   22.9503   -1.7321   55.6646 C   0  0  0  0  0  0
   27.1456    0.3769   53.2484 C   0  0  0  0  0  0
   27.3982   -1.0532   53.1009 C   0  0  0  0  0  0
   20.2311    1.2928   50.8735 O   0  0  0  0  0  0
   18.4029    0.0806   52.2403 O   0  0  0  0  0  0
   25.3159    1.9449   53.3745 C   0  0  0  0  0  0
   28.1212    1.3590   53.3922 C   0  0  0  0  0  0
   17.3813   -0.6908   52.8356 C   0  0  0  0  0  0
   21.1583    1.7748   49.9275 C   0  0  0  0  0  0
   26.2734    2.9391   53.5508 C   0  0  0  0  0  0
   27.6589    2.6693   53.5409 C   0  0  0  0  0  0
   22.8457    0.8580   51.7074 H   0  0  0  0  0  0
   19.3151   -1.3395   54.4081 H   0  0  0  0  0  0
   25.8844   -2.2109   53.9370 H   0  0  0  0  0  0
   25.8340   -2.1777   52.1752 H   0  0  0  0  0  0
   23.1553   -2.2742   56.5724 H   0  0  0  0  0  0
   27.9661   -1.4469   53.9441 H   0  0  0  0  0  0
   27.9382   -1.2502   52.1771 H   0  0  0  0  0  0
   24.2621    2.1810   53.3796 H   0  0  0  0  0  0
   29.1758    1.1239   53.3952 H   0  0  0  0  0  0
   16.4326   -0.4546   52.3548 H   0  0  0  0  0  0
   17.5601   -1.7615   52.7024 H   0  0  0  0  0  0
   17.2745   -0.4744   53.8993 H   0  0  0  0  0  0
   20.6229    2.2616   49.1124 H   0  0  0  0  0  0
   21.7459    0.9595   49.4995 H   0  0  0  0  0  0
   21.8338    2.5099   50.3711 H   0  0  0  0  0  0
   25.9039    3.9339   53.7116 H   0  0  0  0  0  0
   28.3601    3.4821   53.6694 H   0  0  0  0  0  0
  1  2  1  0  0  0
  1  5  1  0  0  0
  1  9  1  0  0  0
  2  3  2  0  0  0
  2  7  1  0  0  0
  3  4  1  0  0  0
  3  6  1  0  0  0
  4  8  1  0  0  0
  4 12  2  0  0  0
  5 14  2  0  0  0
  5 18  1  0  0  0
  6 10  2  0  0  0
  6 24  1  0  0  0
  7 13  2  0  0  0
  8 11  2  0  0  0
  8 25  1  0  0  0
  9 15  1  0  0  0
  9 26  1  0  0  0
  9 27  1  0  0  0
 10 11  1  0  0  0
 10 16  1  0  0  0
 11 17  1  0  0  0
 12 13  1  0  0  0
 13 28  1  0  0  0
 14 15  1  0  0  0
 14 19  1  0  0  0
 15 29  1  0  0  0
 15 30  1  0  0  0
 16 21  1  0  0  0
 17 20  1  0  0  0
 18 22  2  0  0  0
 18 31  1  0  0  0
 19 23  2  0  0  0
 19 32  1  0  0  0
 20 33  1  0  0  0
 20 34  1  0  0  0
 20 35  1  0  0  0
 21 36  1  0  0  0
 21 37  1  0  0  0
 21 38  1  0  0  0
 22 23  1  0  0  0
 22 39  1  0  0  0
 23 40  1  0  0  0
M  END
> <s_m_entry_id>
246

> <s_m_entry_name>
pocket_pv.57

> <s_m_Source_Path>
/home/bortolaa/Project/GT/mario-master/docking/set505protein_struct_1_site_1_set505ligs_train

> <s_m_Source_File>
pocket_pv.maegz

> <i_m_Source_File_Index>
57

> <From>
www.bindingDB.org

> <BindingDB Reactant_set_id>
50007206

> <Ligand InChI>
InChI=1S/C18H17N3O2/c1-22-16-9-13-14(10-17(16)23-2)19-11-20-18(13)21-8-7-12-5-3-4-6-15(12)21/h3-6,9-11H,7-8H2,1-2H3

> <Ligand InChI Key>
HILIXBSGQQWNDX-UHFFFAOYSA-N

> <BindingDB MonomerID>
50290633

> <BindingDB Ligand Name>
4-(2,3-Dihydro-indol-1-yl)-6,7-dimethoxy-quinazoline::CHEMBL328277::CHEMBL545776

> <Target Name Assigned by Curator or DataSource>
Epidermal growth factor receptor

> <Target Source Organism According to Curator or DataSource>
Homo sapiens

> <Ki (nM)>


> <IC50 (nM)>
4100

> <Kd (nM)>


> <EC50 (nM)>


> <kon (M-1-s-1)>


> <koff (s-1)>


> <pH>


> <Temp C>


> <Curation/DataSource>
ChEMBL

> <Article DOI>
10.1016/S0960-894X(97)10059-2

> <PMID>


> <PubChem AID>


> <Patent Number>


> <Authors>
Gibson, KH; Grundy, W; Godfrey, AA; Woodburn, JR; Ashton, SE; Curry, BJ; Scarlett, L; Barker, AJ; Brown, DS

> <Institution>
TBA

> <Link to Ligand in BindingDB>
http://www.bindingdb.org/bind/chemsearch/marvin/MolStructure.jsp?monomerid=50290633

> <Link to Ligand-Target Pair in BindingDB>
http://www.bindingdb.org/jsp/dbsearch/PrimarySearch_ki.jsp?energyterm=kJ/mole&tag=r21&monomerid=50290633&enzyme=Epidermal+growth+factor+receptor&column=ki&startPg=0&Increment=50&submit=Search

> <Ligand HET ID in PDB>


> <PDB ID(s) for Ligand-Target Complex>


> <PubChem CID>
9879615

> <PubChem SID>
104132185

> <ChEBI ID of Ligand>


> <ChEMBL ID of Ligand>
CHEMBL545776
CHEMBL328277

> <DrugBank ID of Ligand>


> <IUPHAR_GRAC ID of Ligand>


> <KEGG ID of Ligand>


> <ZINC ID of Ligand>
ZINC03815395

> <Number of Protein Chains in Target (>
1

> <BindingDB Target Chain Sequence>
MRPSGTAGAALLALLAALCPASRALEEKKVCQGTSNKLTQLGTFEDHFLSLQRMFNNCEVVLGNLEITYVQRNYDLSFLKTIQEVAGYVLIALNTVERIPLENLQIIRGNMYYENSYALAVLSNYDANKTGLKELPMRNLQEILHGAVRFSNNPALCNVESIQWRDIVSSDFLSNMSMDFQNHLGSCQKCDPSCPNGSCWGAGEENCQKLTKIICAQQCSGRCRGKSPSDCCHNQCAAGCTGPRESDCLVCRKFRDEATCKDTCPPLMLYNPTTYQMDVNPEGKYSFGATCVKKCPRNYVVTDHGSCVRACGADSYEMEEDGVRKCKKCEGPCRKVCNGIGIGEFKDSLSINATNIKHFKNCTSISGDLHILPVAFRGDSFTHTPPLDPQELDILKTVKEITGFLLIQAWPENRTDLHAFENLEIIRGRTKQHGQFSLAVVSLNITSLGLRSLKEISDGDVIISGNKNLCYANTINWKKLFGTSGQKTKIISNRGENSCKATGQVCHALCSPEGCWGPEPRDCVSCRNVSRGRECVDKCNLLEGEPREFVENSECIQCHPECLPQAMNITCTGRGPDNCIQCAHYIDGPHCVKTCPAGVMGENNTLVWKYADAGHVCHLCHPNCTYGCTGPGLEGCPTNGPKIPSIATGMVGALLLLLVVALGIGLFMRRRHIVRKRTLRRLLQERELVEPLTPSGEAPNQALLRILKETEFKKIKVLGSGAFGTVYKGLWIPEGEKVKIPVAIKELREATSPKANKEILDEAYVMASVDNPHVCRLLGICLTSTVQLITQLMPFGCLLDYVREHKDNIGSQYLLNWCVQIAKGMNYLEDRRLVHRDLAARNVLVKTPQHVKITDFGLAKLLGAEEKEYHAEGGKVPIKWMALESILHRIYTHQSDVWSYGVTVWELMTFGSKPYDGIPASEISSILEKGERLPQPPICTIDVYMIMVKCWMIDADSRPKFRELIIEFSKMARDPQRYLVIQGDERMHLPSPTDSNFYRALMDEEDMDDVVDADEYLIPQQGFFSSPSTSRTPLLSSLSATSNNSTVACIDRNGLQSCPIKEDSFLQRYSSDPTGALTEDSIDDTFLPVPEYINQSVPKRPAGSVQNPVYHNQPLNPAPSRDPHYQDPHSTAVGNPEYLNTVQPTCVNSTFDSPAHWAQKGSHQISLDNPDYQQDFFPKEAKPNGIFKGSTAENAEYLRVAPQSSEFIGA

> <PDB ID(s) of Target Chain>
1IVO,1M14,1M17,1MOX,1XKK,1Z9I,2GS2,2GS6,2ITW,2ITX,2ITY,2J5E,2J5F,2J6M,2RF9,2RGP,3B2V,3BEL,3GOP,3POZ,3QWQ,3VJO,3W2O,3W2P,3W2Q,3W2R,3W2S,3W32,3W33,4G5J,4I23,4JQ7,4JQ8,4JR3,4JRV,4KRO,4LI5,4RJ4,4RJ5,4RJ6,4RJ7,4RJ8,4TKS,4UIP,4UV7,4WKQ,4WRG,4ZAU,5C8K,5C8M,5C8N,5CAL,5CAN,5CAO,5CAP,5CAQ,5CAS,5CAU,5CAV,5EDP,5EDQ,5EDR,5EM5,5EM6,5EM7,5EM8,5FED,5GNK,5HCX,5HCY,5HCZ,5HIB,5HIC,5UGB,5WB7,5WB8,5Y25,6S89,6S8A

> <UniProt (SwissProt) Recommended Name of Target Chain>
Epidermal growth factor receptor

> <UniProt (SwissProt) Entry Name of Target Chain>
EGFR_HUMAN

> <UniProt (SwissProt) Primary ID of Target Chain>
P00533

> <UniProt (SwissProt) Secondary ID(s) of Target Chain>
O00688,O00732,P06268,Q14225,Q68GS5,Q92795,Q9BZS2,Q9GZX1,Q9H2C9,Q9H3C9,Q9UMD7,Q9UMD8,Q9UMG5

> <UniProt (SwissProt) Alternative ID(s) of Target Chain>


> <UniProt (TrEMBL) Submitted Name of Target Chain>


> <UniProt (TrEMBL) Entry Name of Target Chain>


> <UniProt (TrEMBL) Primary ID of Target Chain>


> <UniProt (TrEMBL) Secondary ID(s) of Target Chain>


> <UniProt (TrEMBL) Alternative ID(s) of Target Chain>


> <training label>
5.38722

> <i_lp_mmshare_version>
54117

> <s_epik_input>
W2NIXTFbY0hdW2NIXVtjSF1jKGMxMilbQ0gyXVtDSDJdTjJjM25bY0hdbmMoYzM0KVtjSF1jKE9bQ0gzXSljKFtjSF00KU9bQ0gzXQ==

> <s_epik_cmdline>
J2VwaWtfcHl0aG9uJywgJy1waHQnLCAnMC4xJywgJy1waCcsICc3LjQnLCAnLXRuJywgJzgnLCAnLW1hJywgJzIwMCcsICctaW1hZScsICc8aW5maWxlLm1hZT4nLCAnLW9tYWUnLCAnPG91dGZpbGUubWFlPic=

> <r_lp_tautomer_probability>
1

> <r_epik_Ionization_Penalty>
  0.0006

> <r_epik_Ionization_Penalty_Charging>
  0.0000

> <r_epik_Ionization_Penalty_Neutral>
  0.0006

> <r_epik_State_Penalty>
  0.0000

> <r_epik_Charging_Adjusted_Penalty>
0

> <i_epik_Tot_Q>
0

> <i_epik_Tot_abs_Q>
0

> <i_f3d_flags>
0

> <s_lp_Force_Field>
OPLS_2005

> <r_lp_Energy>
32.482014

> <b_lp_Chiralities_Consistent>
1

> <s_lp_Variant>
BindingDB_50290633_mol_1-1

> <s_i_glide_gridfile>
struct_1_site_1

> <i_i_glide_lignum>
44

> <i_i_glide_rotatable_bonds>
3

> <r_i_docking_score>
-7.94792409006262

> <r_i_glide_ligand_efficiency>
-0.345561916959244

> <r_i_glide_ligand_efficiency_sa>
-0.982732124107487

> <r_i_glide_ligand_efficiency_ln>
-1.92188011276831

> <r_i_glide_gscore>
-7.94792409006262

> <r_i_glide_lipo>
-2.94674910015877

> <r_i_glide_hbond>
-0.32

> <r_i_glide_metal>
0

> <r_i_glide_rewards>
-2.60419259963443

> <r_i_glide_evdw>
-30.1904411315918

> <r_i_glide_ecoul>
-5.08768463134766

> <r_i_glide_erotb>
0.19569236101231

> <r_i_glide_esite>
0

> <r_i_glide_emodel>
-24.2328874376023

> <r_i_glide_energy>
-35.2781257629395

> <r_i_glide_einternal>
4.4475302696228

> <i_i_glide_confnum>
1

> <i_i_glide_posenum>
182

> <r_i_glide_eff_state_penalty>
0

> <r_glide_shape_similarity>
0.717372715473175

> <s_m_subgroup_title>
505 training

> <s_m_subgroupid>
pocket_pv

> <b_m_subgroup_collapsed>
0

$$$$
BindingDB_50307770_mol_1
                    3D
 Schrodinger Suite 2021-2.
 47 49  0  0  1  0            999 V2000
   20.1776    0.4984   52.1019 C   0  0  0  0  0  0
   19.3450   -0.3967   52.8108 C   0  0  0  0  0  0
   19.9023   -1.2039   53.8388 C   0  0  0  0  0  0
   21.5223    0.6477   52.5034 C   0  0  0  0  0  0
   22.0737   -0.1687   53.5112 C   0  0  0  0  0  0
   21.2675   -1.1159   54.1867 C   0  0  0  0  0  0
   21.8014   -1.9009   55.1470 N   0  0  0  0  0  0
   23.0975   -1.7479   55.4164 C   0  0  0  0  0  0
   23.9411   -0.9049   54.8308 N   0  0  0  0  0  0
   23.4398   -0.0989   53.8728 C   0  0  0  0  0  0
   19.6423    1.1291   50.9950 O   0  0  0  0  0  0
   18.0249   -0.4381   52.4107 O   0  0  0  0  0  0
   17.0874   -1.1218   53.2212 C   0  0  0  0  0  0
   24.2889    0.8492   53.2763 N   0  0  0  0  0  0
   25.6843    0.9448   53.3409 C   0  0  0  0  0  0
   26.5090   -0.2037   53.3318 C   0  0  0  0  0  0
   27.9076   -0.0784   53.3871 C   0  0  0  0  0  0
   28.4854    1.1997   53.4588 C   0  0  0  0  0  0
   27.6764    2.3492   53.4309 C   0  0  0  0  0  0
   26.2768    2.2234   53.3700 C   0  0  0  0  0  0
   20.4231    2.0801   50.2770 C   0  0  0  0  0  0
   19.8629    2.3585   48.8678 C   0  0  0  0  0  0
   18.3349    2.5197   48.7053 C   0  0  0  0  0  0
   29.8239    1.3100   53.5797 F   0  0  0  0  0  0
   28.9061   -1.4890   53.3744 Cl  0  0  0  0  0  0
   17.6484    3.3314   49.8095 C   0  0  0  0  0  0
   17.3446    4.6187   49.5430 N   0  0  0  0  0  0
   17.3453    2.7724   50.8730 O   0  0  0  0  0  0
   16.2380    5.1341   50.2815 O   0  0  0  0  0  0
   19.2895   -1.9081   54.3787 H   0  0  0  0  0  0
   22.1659    1.3471   51.9991 H   0  0  0  0  0  0
   23.5079   -2.3947   56.1779 H   0  0  0  0  0  0
   16.0772   -0.9166   52.8668 H   0  0  0  0  0  0
   17.2464   -2.1993   53.1657 H   0  0  0  0  0  0
   17.1449   -0.8087   54.2650 H   0  0  0  0  0  0
   23.8242    1.6291   52.8354 H   0  0  0  0  0  0
   26.0767   -1.1925   53.2804 H   0  0  0  0  0  0
   28.1250    3.3307   53.4796 H   0  0  0  0  0  0
   25.6711    3.1195   53.3714 H   0  0  0  0  0  0
   21.4401    1.7295   50.1208 H   0  0  0  0  0  0
   20.4759    2.9990   50.8557 H   0  0  0  0  0  0
   20.1643    1.5354   48.2171 H   0  0  0  0  0  0
   20.3635    3.2393   48.4639 H   0  0  0  0  0  0
   17.8836    1.5267   48.7157 H   0  0  0  0  0  0
   18.1023    2.9427   47.7272 H   0  0  0  0  0  0
   17.3777    5.0440   48.6231 H   0  0  0  0  0  0
   16.2889    6.0966   50.1742 H   0  0  0  0  0  0
  1  2  2  0  0  0
  1  4  1  0  0  0
  1 11  1  0  0  0
  2  3  1  0  0  0
  2 12  1  0  0  0
  3  6  2  0  0  0
  3 30  1  0  0  0
  4  5  2  0  0  0
  4 31  1  0  0  0
  5  6  1  0  0  0
  5 10  1  0  0  0
  6  7  1  0  0  0
  7  8  2  0  0  0
  8  9  1  0  0  0
  8 32  1  0  0  0
  9 10  2  0  0  0
 10 14  1  0  0  0
 11 21  1  0  0  0
 12 13  1  0  0  0
 13 33  1  0  0  0
 13 34  1  0  0  0
 13 35  1  0  0  0
 14 15  1  0  0  0
 14 36  1  0  0  0
 15 16  2  0  0  0
 15 20  1  0  0  0
 16 17  1  0  0  0
 16 37  1  0  0  0
 17 18  2  0  0  0
 17 25  1  0  0  0
 18 19  1  0  0  0
 18 24  1  0  0  0
 19 20  2  0  0  0
 19 38  1  0  0  0
 20 39  1  0  0  0
 21 22  1  0  0  0
 21 40  1  0  0  0
 21 41  1  0  0  0
 22 23  1  0  0  0
 22 42  1  0  0  0
 22 43  1  0  0  0
 23 26  1  0  0  0
 23 44  1  0  0  0
 23 45  1  0  0  0
 26 27  1  0  0  0
 26 28  2  0  0  0
 27 29  1  0  0  0
 27 46  1  0  0  0
 29 47  1  0  0  0
M  END
> <s_m_entry_id>
247

> <s_m_entry_name>
pocket_pv.58

> <s_m_Source_Path>
/home/bortolaa/Project/GT/mario-master/docking/set505protein_struct_1_site_1_set505ligs_train

> <s_m_Source_File>
pocket_pv.maegz

> <i_m_Source_File_Index>
58

> <From>
www.bindingDB.org

> <BindingDB Reactant_set_id>
50552092

> <Ligand InChI>
InChI=1S/C19H18ClFN4O4/c1-28-16-9-15-12(8-17(16)29-6-2-3-18(26)25-27)19(23-10-22-15)24-11-4-5-14(21)13(20)7-11/h4-5,7-10,27H,2-3,6H2,1H3,(H,25,26)(H,22,23,24)

> <Ligand InChI Key>
GRAAVPHBSRABFO-UHFFFAOYSA-N

> <BindingDB MonomerID>
50307770

> <BindingDB Ligand Name>
4-(4-(3-Chloro-4-fluorophenylamino)-7-methoxyquinazolin-6-yloxy)-N-hydroxybutanamide::CHEMBL597752

> <Target Name Assigned by Curator or DataSource>
Epidermal growth factor receptor

> <Target Source Organism According to Curator or DataSource>
Homo sapiens

> <Ki (nM)>


> <Kd (nM)>


> <EC50 (nM)>


> <kon (M-1-s-1)>


> <koff (s-1)>


> <pH>


> <Temp C>


> <Curation/DataSource>
ChEMBL

> <Article DOI>
10.1021/jm901453q

> <PubChem AID>


> <Patent Number>


> <Authors>
Cai, X; Zhai, HX; Wang, J; Forrester, J; Qu, H; Yin, L; Lai, CJ; Bao, R; Qian, C

> <Institution>
Curis Inc

> <Link to Ligand in BindingDB>
http://www.bindingdb.org/bind/chemsearch/marvin/MolStructure.jsp?monomerid=50307770

> <Link to Ligand-Target Pair in BindingDB>
http://www.bindingdb.org/jsp/dbsearch/PrimarySearch_ki.jsp?energyterm=kJ/mole&tag=r21&monomerid=50307770&enzyme=Epidermal+growth+factor+receptor&column=ki&startPg=0&Increment=50&submit=Search

> <Ligand HET ID in PDB>


> <PDB ID(s) for Ligand-Target Complex>


> <PubChem CID>
24944849

> <PubChem SID>
104162131

> <ChEBI ID of Ligand>


> <ChEMBL ID of Ligand>
CHEMBL597752

> <DrugBank ID of Ligand>


> <IUPHAR_GRAC ID of Ligand>


> <KEGG ID of Ligand>


> <ZINC ID of Ligand>
ZINC45355767

> <Number of Protein Chains in Target (>
1

> <BindingDB Target Chain Sequence>
MRPSGTAGAALLALLAALCPASRALEEKKVCQGTSNKLTQLGTFEDHFLSLQRMFNNCEVVLGNLEITYVQRNYDLSFLKTIQEVAGYVLIALNTVERIPLENLQIIRGNMYYENSYALAVLSNYDANKTGLKELPMRNLQEILHGAVRFSNNPALCNVESIQWRDIVSSDFLSNMSMDFQNHLGSCQKCDPSCPNGSCWGAGEENCQKLTKIICAQQCSGRCRGKSPSDCCHNQCAAGCTGPRESDCLVCRKFRDEATCKDTCPPLMLYNPTTYQMDVNPEGKYSFGATCVKKCPRNYVVTDHGSCVRACGADSYEMEEDGVRKCKKCEGPCRKVCNGIGIGEFKDSLSINATNIKHFKNCTSISGDLHILPVAFRGDSFTHTPPLDPQELDILKTVKEITGFLLIQAWPENRTDLHAFENLEIIRGRTKQHGQFSLAVVSLNITSLGLRSLKEISDGDVIISGNKNLCYANTINWKKLFGTSGQKTKIISNRGENSCKATGQVCHALCSPEGCWGPEPRDCVSCRNVSRGRECVDKCNLLEGEPREFVENSECIQCHPECLPQAMNITCTGRGPDNCIQCAHYIDGPHCVKTCPAGVMGENNTLVWKYADAGHVCHLCHPNCTYGCTGPGLEGCPTNGPKIPSIATGMVGALLLLLVVALGIGLFMRRRHIVRKRTLRRLLQERELVEPLTPSGEAPNQALLRILKETEFKKIKVLGSGAFGTVYKGLWIPEGEKVKIPVAIKELREATSPKANKEILDEAYVMASVDNPHVCRLLGICLTSTVQLITQLMPFGCLLDYVREHKDNIGSQYLLNWCVQIAKGMNYLEDRRLVHRDLAARNVLVKTPQHVKITDFGLAKLLGAEEKEYHAEGGKVPIKWMALESILHRIYTHQSDVWSYGVTVWELMTFGSKPYDGIPASEISSILEKGERLPQPPICTIDVYMIMVKCWMIDADSRPKFRELIIEFSKMARDPQRYLVIQGDERMHLPSPTDSNFYRALMDEEDMDDVVDADEYLIPQQGFFSSPSTSRTPLLSSLSATSNNSTVACIDRNGLQSCPIKEDSFLQRYSSDPTGALTEDSIDDTFLPVPEYINQSVPKRPAGSVQNPVYHNQPLNPAPSRDPHYQDPHSTAVGNPEYLNTVQPTCVNSTFDSPAHWAQKGSHQISLDNPDYQQDFFPKEAKPNGIFKGSTAENAEYLRVAPQSSEFIGA

> <PDB ID(s) of Target Chain>
1IVO,1M14,1M17,1MOX,1XKK,1Z9I,2GS2,2GS6,2ITW,2ITX,2ITY,2J5E,2J5F,2J6M,2RF9,2RGP,3B2V,3BEL,3GOP,3POZ,3QWQ,3VJO,3W2O,3W2P,3W2Q,3W2R,3W2S,3W32,3W33,4G5J,4I23,4JQ7,4JQ8,4JR3,4JRV,4KRO,4LI5,4RJ4,4RJ5,4RJ6,4RJ7,4RJ8,4TKS,4UIP,4UV7,4WKQ,4WRG,4ZAU,5C8K,5C8M,5C8N,5CAL,5CAN,5CAO,5CAP,5CAQ,5CAS,5CAU,5CAV,5EDP,5EDQ,5EDR,5EM5,5EM6,5EM7,5EM8,5FED,5GNK,5HCX,5HCY,5HCZ,5HIB,5HIC,5UGB,5WB7,5WB8,5Y25,6S89,6S8A

> <UniProt (SwissProt) Recommended Name of Target Chain>
Epidermal growth factor receptor

> <UniProt (SwissProt) Entry Name of Target Chain>
EGFR_HUMAN

> <UniProt (SwissProt) Primary ID of Target Chain>
P00533

> <UniProt (SwissProt) Secondary ID(s) of Target Chain>
O00688,O00732,P06268,Q14225,Q68GS5,Q92795,Q9BZS2,Q9GZX1,Q9H2C9,Q9H3C9,Q9UMD7,Q9UMD8,Q9UMG5

> <UniProt (SwissProt) Alternative ID(s) of Target Chain>


> <UniProt (TrEMBL) Submitted Name of Target Chain>


> <UniProt (TrEMBL) Entry Name of Target Chain>


> <UniProt (TrEMBL) Primary ID of Target Chain>


> <UniProt (TrEMBL) Secondary ID(s) of Target Chain>


> <UniProt (TrEMBL) Alternative ID(s) of Target Chain>


> <training label>
8.10791

> <i_lp_mmshare_version>
54117

> <s_epik_input>
W09IXVtOSF1DKD1PKVtDSDJdW0NIMl1bQ0gyXU9jKFtjSF0xKWMoT1tDSDNdKVtjSF1jKGMxMiluW2NIXW5jMltOSF1jM1tjSF1jKENsKWMoRilbY0hdW2NIXTM=

> <s_epik_cmdline>
J2VwaWtfcHl0aG9uJywgJy1waHQnLCAnMC4xJywgJy1waCcsICc3LjQnLCAnLXRuJywgJzgnLCAnLW1hJywgJzIwMCcsICctaW1hZScsICc8aW5maWxlLm1hZT4nLCAnLW9tYWUnLCAnPG91dGZpbGUubWFlPic=

> <r_lp_tautomer_probability>
1

> <r_epik_Ionization_Penalty>
  0.0117

> <r_epik_Ionization_Penalty_Charging>
  0.0000

> <r_epik_Ionization_Penalty_Neutral>
  0.0117

> <r_epik_State_Penalty>
  0.0000

> <r_epik_Charging_Adjusted_Penalty>
0

> <i_epik_Tot_Q>
0

> <i_epik_Tot_abs_Q>
0

> <i_f3d_flags>
0

> <s_lp_Force_Field>
OPLS_2005

> <r_lp_Energy>
24.833922

> <b_lp_Chiralities_Consistent>
1

> <s_lp_Variant>
BindingDB_50307770_mol_1-1

> <s_i_glide_gridfile>
struct_1_site_1

> <i_i_glide_lignum>
243

> <i_i_glide_rotatable_bonds>
10

> <r_i_docking_score>
-7.93997695931787

> <r_i_glide_ligand_efficiency>
-0.273792308941995

> <r_i_glide_ligand_efficiency_sa>
-0.841176716561707

> <r_i_glide_ligand_efficiency_ln>
-1.81805338324023

> <r_i_glide_gscore>
-7.93997695931787

> <r_i_glide_lipo>
-2.92363670582659

> <r_i_glide_hbond>
-0.304562097768252

> <r_i_glide_metal>
0

> <r_i_glide_rewards>
-1.68811559156145

> <r_i_glide_evdw>
-40.9917869567871

> <r_i_glide_ecoul>
-11.6797037124634

> <r_i_glide_erotb>
0.894270348900777

> <r_i_glide_esite>
-0.116388008353484

> <r_i_glide_emodel>
-66.7693442385954

> <r_i_glide_energy>
-52.6714906692505

> <r_i_glide_einternal>
7.89944171905518

> <i_i_glide_confnum>
265

> <i_i_glide_posenum>
66

> <r_i_glide_eff_state_penalty>
0

> <IC50 (nM)>
7.8

> <PMID>
20143778

> <s_epik_Chemistry_Notes>
This compound has a N-S or N-O group and may undergo hydrolysis at high or low pH.

> <r_glide_shape_similarity>
0.879543960094452

> <s_m_subgroup_title>
505 training

> <s_m_subgroupid>
pocket_pv

> <b_m_subgroup_collapsed>
0

$$$$
4-Anilinoquinazoline
                    3D
 Schrodinger Suite 2021-2.
 58 61  0  0  1  0            999 V2000
   23.4457   -0.0977   53.8740 C   0  0  0  0  0  0
   23.0914   -1.7552   55.4244 C   0  0  0  0  0  0
   21.2709   -1.1121   54.1857 C   0  0  0  0  0  0
   22.0782   -0.1580   53.5031 C   0  0  0  0  0  0
   21.5230    0.6574   52.4907 C   0  0  0  0  0  0
   20.1573    0.5332   52.1365 C   0  0  0  0  0  0
   19.3385   -0.3905   52.8326 C   0  0  0  0  0  0
   19.9076   -1.2104   53.8424 C   0  0  0  0  0  0
   23.9258   -0.8961   54.8531 N   0  0  0  0  0  0
   21.7986   -1.9060   55.1438 N   0  0  0  0  0  0
   25.7722    0.4781   53.1985 C   0  0  0  0  0  0
   28.1221    1.1178   53.5301 C   0  0  0  0  0  0
   26.7526    1.4762   53.4376 C   0  0  0  0  0  0
   26.1975   -0.8555   52.9591 C   0  0  0  0  0  0
   28.5020   -0.2399   53.3813 C   0  0  0  0  0  0
   26.3696    2.7578   53.6454 F   0  0  0  0  0  0
   24.3890    0.7523   53.2573 N   0  0  0  0  0  0
   24.0728    1.6583   52.9362 H   0  0  0  0  0  0
   18.0150   -0.4464   52.4488 O   0  0  0  0  0  0
   19.5771    1.2817   51.1274 O   0  0  0  0  0  0
   20.3802    1.6013   49.9961 C   0  0  0  0  0  0
   17.1667   -1.3853   53.0925 C   0  0  0  0  0  0
   27.5487   -1.2175   53.0652 C   0  0  0  0  0  0
   15.7292   -1.2238   52.5744 C   0  0  0  0  0  0
   15.0610    0.0862   53.0440 C   0  0  1  0  0  0
   12.8511    1.2558   53.5801 C   0  0  0  0  0  0
   14.6914    2.5947   52.5651 C   0  0  0  0  0  0
   15.4259    1.2908   52.1406 C   0  0  0  0  0  0
   13.5258   -0.0627   53.1231 C   0  0  0  0  0  0
   13.2082    2.4094   52.6861 N   0  3  2  0  0  0
   12.5127    3.6710   53.0855 C   0  0  0  0  0  0
   30.2872   -0.8241   53.6466 Br  0  0  0  0  0  0
   23.5085   -2.4085   56.1741 H   0  0  0  0  0  0
   22.1488    1.3699   51.9764 H   0  0  0  0  0  0
   19.3145   -1.9280   54.3868 H   0  0  0  0  0  0
   28.8660    1.8668   53.7611 H   0  0  0  0  0  0
   25.4754   -1.6303   52.7437 H   0  0  0  0  0  0
   19.7405    1.9315   49.1757 H   0  0  0  0  0  0
   21.0752    2.4084   50.2210 H   0  0  0  0  0  0
   20.9389    0.7336   49.6469 H   0  0  0  0  0  0
   17.1816   -1.2412   54.1740 H   0  0  0  0  0  0
   17.5183   -2.3998   52.8846 H   0  0  0  0  0  0
   27.8438   -2.2486   52.9362 H   0  0  0  0  0  0
   15.1560   -2.0664   52.9611 H   0  0  0  0  0  0
   15.6968   -1.3165   51.4875 H   0  0  0  0  0  0
   15.4040    0.2930   54.0574 H   0  0  0  0  0  0
   11.7667    1.1296   53.5862 H   0  0  0  0  0  0
   13.1468    1.4879   54.6060 H   0  0  0  0  0  0
   14.8977    3.3753   51.8286 H   0  0  0  0  0  0
   15.0846    2.9591   53.5143 H   0  0  0  0  0  0
   15.1806    1.0612   51.1028 H   0  0  0  0  0  0
   16.4986    1.4776   52.1677 H   0  0  0  0  0  0
   13.2611   -0.8626   53.8198 H   0  0  0  0  0  0
   13.1335   -0.3553   52.1480 H   0  0  0  0  0  0
   12.7789    3.9560   54.1074 H   0  0  0  0  0  0
   12.7699    4.5074   52.4230 H   0  0  0  0  0  0
   11.4314    3.5350   53.0429 H   0  0  0  0  0  0
   12.8629    2.1840   51.7562 H   0  0  0  0  0  0
  1  4  2  0  0  0
  1  9  1  0  0  0
  1 17  1  0  0  0
  2  9  2  0  0  0
  2 10  1  0  0  0
  2 33  1  0  0  0
  3  4  1  0  0  0
  3  8  1  0  0  0
  3 10  2  0  0  0
  4  5  1  0  0  0
  5  6  2  0  0  0
  5 34  1  0  0  0
  6  7  1  0  0  0
  6 20  1  0  0  0
  7  8  2  0  0  0
  7 19  1  0  0  0
  8 35  1  0  0  0
 11 13  2  0  0  0
 11 14  1  0  0  0
 11 17  1  0  0  0
 12 13  1  0  0  0
 12 15  2  0  0  0
 12 36  1  0  0  0
 13 16  1  0  0  0
 14 23  2  0  0  0
 14 37  1  0  0  0
 15 23  1  0  0  0
 15 32  1  0  0  0
 17 18  1  0  0  0
 19 22  1  0  0  0
 20 21  1  0  0  0
 21 38  1  0  0  0
 21 39  1  0  0  0
 21 40  1  0  0  0
 22 24  1  0  0  0
 22 41  1  0  0  0
 22 42  1  0  0  0
 23 43  1  0  0  0
 24 25  1  0  0  0
 24 44  1  0  0  0
 24 45  1  0  0  0
 25 28  1  0  0  0
 25 29  1  0  0  0
 25 46  1  0  0  0
 26 29  1  0  0  0
 26 30  1  0  0  0
 26 47  1  0  0  0
 26 48  1  0  0  0
 27 28  1  0  0  0
 27 30  1  0  0  0
 27 49  1  0  0  0
 27 50  1  0  0  0
 28 51  1  0  0  0
 28 52  1  0  0  0
 29 53  1  0  0  0
 29 54  1  0  0  0
 30 31  1  0  0  0
 30 58  1  0  0  0
 31 55  1  0  0  0
 31 56  1  0  0  0
 31 57  1  0  0  0
M  CHG  1  30   1
M  END
> <s_m_entry_id>
248

> <s_m_entry_name>
pocket_pv.59

> <s_m_Source_Path>
/home/bortolaa/Project/GT/mario-master/docking/set505protein_struct_1_site_1_set505ligs_train

> <s_m_Source_File>
pocket_pv.maegz

> <i_m_Source_File_Index>
59

> <From>
www.bindingDB.org

> <BindingDB Reactant_set_id>
7093

> <Ligand InChI>
InChI=1S/C23H26BrFN4O2/c1-29-8-5-15(6-9-29)7-10-31-22-13-20-17(12-21(22)30-2)23(27-14-26-20)28-19-4-3-16(24)11-18(19)25/h3-4,11-15H,5-10H2,1-2H3,(H,26,27,28)

> <Ligand InChI Key>
OORQGKRPXSYBAR-UHFFFAOYSA-N

> <BindingDB MonomerID>
4680

> <BindingDB Ligand Name>
4-Anilinoquinazoline 27::N-(4-Bromo-2-fluorophenyl)-6-methoxy-7-[2-(1-methylpiperidin-4-yl)ethoxy]quinazolin-4-amine

> <Target Name Assigned by Curator or DataSource>
Epidermal growth factor receptor

> <Target Source Organism According to Curator or DataSource>
Homo sapiens

> <Ki (nM)>


> <Kd (nM)>


> <EC50 (nM)>


> <kon (M-1-s-1)>


> <koff (s-1)>


> <pH>


> <Curation/DataSource>
Curated from the literature by BindingDB

> <Article DOI>
10.1021/jm011022e

> <PubChem AID>


> <Patent Number>


> <Authors>
Hennequin, LF; Stokes, ES; Thomas, AP; Johnstone, C; Ple, PA; Ogilvie, DJ; Dukes, M; Wedge, SR; Kendrew, J; Curwen, JO

> <Institution>
AstraZeneca

> <Link to Ligand in BindingDB>
http://www.bindingdb.org/bind/chemsearch/marvin/MolStructure.jsp?monomerid=4680

> <Link to Ligand-Target Pair in BindingDB>
http://www.bindingdb.org/jsp/dbsearch/PrimarySearch_ki.jsp?energyterm=kJ/mole&tag=r21&monomerid=4680&enzyme=Epidermal+growth+factor+receptor&column=ki&startPg=0&Increment=50&submit=Search

> <Ligand HET ID in PDB>


> <PDB ID(s) for Ligand-Target Complex>


> <PubChem CID>
5329053

> <PubChem SID>
8034337

> <ChEBI ID of Ligand>


> <ChEMBL ID of Ligand>


> <DrugBank ID of Ligand>


> <IUPHAR_GRAC ID of Ligand>


> <KEGG ID of Ligand>


> <ZINC ID of Ligand>
ZINC13472797

> <Number of Protein Chains in Target (>
1

> <BindingDB Target Chain Sequence>
MRPSGTAGAALLALLAALCPASRALEEKKVCQGTSNKLTQLGTFEDHFLSLQRMFNNCEVVLGNLEITYVQRNYDLSFLKTIQEVAGYVLIALNTVERIPLENLQIIRGNMYYENSYALAVLSNYDANKTGLKELPMRNLQEILHGAVRFSNNPALCNVESIQWRDIVSSDFLSNMSMDFQNHLGSCQKCDPSCPNGSCWGAGEENCQKLTKIICAQQCSGRCRGKSPSDCCHNQCAAGCTGPRESDCLVCRKFRDEATCKDTCPPLMLYNPTTYQMDVNPEGKYSFGATCVKKCPRNYVVTDHGSCVRACGADSYEMEEDGVRKCKKCEGPCRKVCNGIGIGEFKDSLSINATNIKHFKNCTSISGDLHILPVAFRGDSFTHTPPLDPQELDILKTVKEITGFLLIQAWPENRTDLHAFENLEIIRGRTKQHGQFSLAVVSLNITSLGLRSLKEISDGDVIISGNKNLCYANTINWKKLFGTSGQKTKIISNRGENSCKATGQVCHALCSPEGCWGPEPRDCVSCRNVSRGRECVDKCNLLEGEPREFVENSECIQCHPECLPQAMNITCTGRGPDNCIQCAHYIDGPHCVKTCPAGVMGENNTLVWKYADAGHVCHLCHPNCTYGCTGPGLEGCPTNGPKIPSIATGMVGALLLLLVVALGIGLFMRRRHIVRKRTLRRLLQERELVEPLTPSGEAPNQALLRILKETEFKKIKVLGSGAFGTVYKGLWIPEGEKVKIPVAIKELREATSPKANKEILDEAYVMASVDNPHVCRLLGICLTSTVQLITQLMPFGCLLDYVREHKDNIGSQYLLNWCVQIAKGMNYLEDRRLVHRDLAARNVLVKTPQHVKITDFGLAKLLGAEEKEYHAEGGKVPIKWMALESILHRIYTHQSDVWSYGVTVWELMTFGSKPYDGIPASEISSILEKGERLPQPPICTIDVYMIMVKCWMIDADSRPKFRELIIEFSKMARDPQRYLVIQGDERMHLPSPTDSNFYRALMDEEDMDDVVDADEYLIPQQGFFSSPSTSRTPLLSSLSATSNNSTVACIDRNGLQSCPIKEDSFLQRYSSDPTGALTEDSIDDTFLPVPEYINQSVPKRPAGSVQNPVYHNQPLNPAPSRDPHYQDPHSTAVGNPEYLNTVQPTCVNSTFDSPAHWAQKGSHQISLDNPDYQQDFFPKEAKPNGIFKGSTAENAEYLRVAPQSSEFIGA

> <PDB ID(s) of Target Chain>
1IVO,1M14,1M17,1MOX,1XKK,1Z9I,2GS2,2GS6,2ITW,2ITX,2ITY,2J5E,2J5F,2J6M,2RF9,2RGP,3B2V,3BEL,3GOP,3POZ,3QWQ,3VJO,3W2O,3W2P,3W2Q,3W2R,3W2S,3W32,3W33,4G5J,4I23,4JQ7,4JQ8,4JR3,4JRV,4KRO,4LI5,4RJ4,4RJ5,4RJ6,4RJ7,4RJ8,4TKS,4UIP,4UV7,4WKQ,4WRG,4ZAU,5C8K,5C8M,5C8N,5CAL,5CAN,5CAO,5CAP,5CAQ,5CAS,5CAU,5CAV,5EDP,5EDQ,5EDR,5EM5,5EM6,5EM7,5EM8,5FED,5GNK,5HCX,5HCY,5HCZ,5HIB,5HIC,5UGB,5WB7,5WB8,5Y25,6S89,6S8A

> <UniProt (SwissProt) Recommended Name of Target Chain>
Epidermal growth factor receptor

> <UniProt (SwissProt) Entry Name of Target Chain>
EGFR_HUMAN

> <UniProt (SwissProt) Primary ID of Target Chain>
P00533

> <UniProt (SwissProt) Secondary ID(s) of Target Chain>
O00688,O00732,P06268,Q14225,Q68GS5,Q92795,Q9BZS2,Q9GZX1,Q9H2C9,Q9H3C9,Q9UMD7,Q9UMD8,Q9UMG5

> <UniProt (SwissProt) Alternative ID(s) of Target Chain>


> <UniProt (TrEMBL) Submitted Name of Target Chain>


> <UniProt (TrEMBL) Entry Name of Target Chain>


> <UniProt (TrEMBL) Primary ID of Target Chain>


> <UniProt (TrEMBL) Secondary ID(s) of Target Chain>


> <UniProt (TrEMBL) Alternative ID(s) of Target Chain>


> <training label>
6.69897

> <i_lp_mmshare_version>
54117

> <s_epik_input>
W2NIXTFbY0hdYyhCcilbY0hdYyhGKWMxW05IXWMobltjSF1uMiljKGMyMylbY0hdYyhPW0NIM10pYyhbY0hdMylPW0NIMl1bQ0gyXVtDSF00W0NIMl1bQ0gyXU4oW0NIM10pW0NIMl1bQ0gyXTQ=

> <s_epik_cmdline>
J2VwaWtfcHl0aG9uJywgJy1waHQnLCAnMC4xJywgJy1waCcsICc3LjQnLCAnLXRuJywgJzgnLCAnLW1hJywgJzIwMCcsICctaW1hZScsICc8aW5maWxlLm1hZT4nLCAnLW9tYWUnLCAnPG91dGZpbGUubWFlPic=

> <r_lp_tautomer_probability>
1

> <r_epik_Ionization_Penalty>
  0.0028

> <r_epik_Ionization_Penalty_Charging>
  0.0022

> <r_epik_Ionization_Penalty_Neutral>
  0.0007

> <r_epik_State_Penalty>
  0.0000

> <r_epik_Charging_Adjusted_Penalty>
0.00215668419207172

> <i_epik_Tot_Q>
1

> <i_epik_Tot_abs_Q>
1

> <i_f3d_flags>
0

> <s_lp_Force_Field>
OPLS_2005

> <r_lp_Energy>
33.955105

> <b_lp_Chiralities_Consistent>
1

> <s_lp_Variant>
4-Anilinoquinazoline-2

> <s_i_glide_gridfile>
struct_1_site_1

> <i_i_glide_lignum>
135

> <i_i_glide_rotatable_bonds>
7

> <r_i_docking_score>
-7.93874977493836

> <r_i_glide_ligand_efficiency>
-0.256088702417366

> <r_i_glide_ligand_efficiency_sa>
-0.804472094149083

> <r_i_glide_ligand_efficiency_ln>
-1.79043136771076

> <r_i_glide_gscore>
-7.93874977493836

> <r_i_glide_lipo>
-3.60411622658053

> <r_i_glide_hbond>
-0.32

> <r_i_glide_metal>
0

> <r_i_glide_rewards>
-1.20349213111437

> <r_i_glide_evdw>
-46.9211845397949

> <r_i_glide_ecoul>
-5.81879758834839

> <r_i_glide_erotb>
0.507737447998545

> <r_i_glide_esite>
-0.1

> <r_i_glide_emodel>
-57.9373266763831

> <r_i_glide_energy>
-52.7399821281433

> <r_i_glide_einternal>
2.51136016845703

> <i_i_glide_confnum>
124

> <i_i_glide_posenum>
366

> <r_i_glide_eff_state_penalty>
0

> <IC50 (nM)>
200

> <PMID>
11881999

> <Temp C>
25

> <r_glide_shape_similarity>
0.788354277610779

> <s_m_subgroup_title>
505 training

> <s_m_subgroupid>
pocket_pv

> <b_m_subgroup_collapsed>
0

$$$$
BindingDB_50290835_mol_1
                    3D
 Schrodinger Suite 2021-2.
 44 46  0  0  1  0            999 V2000
   22.0633   -0.1727   53.4977 C   0  0  0  0  0  0
   23.4206   -0.1155   53.8594 C   0  0  0  0  0  0
   21.2656   -1.1092   54.1772 C   0  0  0  0  0  0
   21.5134    0.6407   52.4921 C   0  0  0  0  0  0
   23.9318   -0.9002   54.8177 N   0  0  0  0  0  0
   19.9037   -1.2011   53.8367 C   0  0  0  0  0  0
   24.2622    0.7903   53.2264 N   0  0  0  0  0  0
   20.1612    0.5251   52.1394 C   0  0  0  0  0  0
   19.3428   -0.3763   52.8325 C   0  0  0  0  0  0
   21.7985   -1.8911   55.1362 N   0  0  0  0  0  0
   26.4938   -0.2296   53.3089 C   0  0  0  0  0  0
   27.8884   -0.0576   53.4155 C   0  0  0  0  0  0
   23.0891   -1.7323   55.4084 C   0  0  0  0  0  0
   25.6405    0.8898   53.2967 C   0  0  0  0  0  0
   28.3835    1.2446   53.5190 C   0  0  0  0  0  0
   27.5330    2.3557   53.3980 C   0  0  0  0  0  0
   26.1622    2.1769   53.3032 C   0  0  0  0  0  0
   19.5928    1.2682   51.1319 O   0  0  0  0  0  0
   18.0252   -0.3951   52.4418 O   0  0  0  0  0  0
   28.8169   -1.0679   53.5101 O   0  0  0  0  0  0
   29.7054    1.3646   53.7955 O   0  0  0  0  0  0
   17.1070   -1.1021   53.2449 C   0  0  0  0  0  0
   28.4250   -2.3922   53.2279 C   0  0  0  0  0  0
   20.3933    1.5630   49.9986 C   0  0  0  0  0  0
   30.0625    2.5710   54.4354 C   0  0  0  0  0  0
   22.1277    1.3504   51.9608 H   0  0  0  0  0  0
   19.2956   -1.9119   54.3754 H   0  0  0  0  0  0
   23.8029    1.5899   52.8263 H   0  0  0  0  0  0
   26.0620   -1.2165   53.2676 H   0  0  0  0  0  0
   23.4998   -2.3712   56.1778 H   0  0  0  0  0  0
   27.8772    3.3770   53.4290 H   0  0  0  0  0  0
   25.5214    3.0460   53.2537 H   0  0  0  0  0  0
   16.0930   -0.9236   52.8882 H   0  0  0  0  0  0
   17.2850   -2.1784   53.1998 H   0  0  0  0  0  0
   17.1488   -0.7796   54.2870 H   0  0  0  0  0  0
   29.2352   -3.0768   53.4754 H   0  0  0  0  0  0
   27.5458   -2.7121   53.7737 H   0  0  0  0  0  0
   28.1979   -2.5191   52.1750 H   0  0  0  0  0  0
   19.7479    1.8073   49.1558 H   0  0  0  0  0  0
   21.0102    0.7148   49.6998 H   0  0  0  0  0  0
   21.0378    2.4247   50.1829 H   0  0  0  0  0  0
   31.1269    2.5556   54.6212 H   0  0  0  0  0  0
   29.9080    3.4010   53.7526 H   0  0  0  0  0  0
   29.5254    2.7266   55.3712 H   0  0  0  0  0  0
  1  2  2  0  0  0
  1  3  1  0  0  0
  1  4  1  0  0  0
  2  5  1  0  0  0
  2  7  1  0  0  0
  3  6  1  0  0  0
  3 10  2  0  0  0
  4  8  2  0  0  0
  4 26  1  0  0  0
  5 13  2  0  0  0
  6  9  2  0  0  0
  6 27  1  0  0  0
  7 14  1  0  0  0
  7 28  1  0  0  0
  8  9  1  0  0  0
  8 18  1  0  0  0
  9 19  1  0  0  0
 10 13  1  0  0  0
 11 12  1  0  0  0
 11 14  2  0  0  0
 11 29  1  0  0  0
 12 15  2  0  0  0
 12 20  1  0  0  0
 13 30  1  0  0  0
 14 17  1  0  0  0
 15 16  1  0  0  0
 15 21  1  0  0  0
 16 17  2  0  0  0
 16 31  1  0  0  0
 17 32  1  0  0  0
 18 24  1  0  0  0
 19 22  1  0  0  0
 20 23  1  0  0  0
 21 25  1  0  0  0
 22 33  1  0  0  0
 22 34  1  0  0  0
 22 35  1  0  0  0
 23 36  1  0  0  0
 23 37  1  0  0  0
 23 38  1  0  0  0
 24 39  1  0  0  0
 24 40  1  0  0  0
 24 41  1  0  0  0
 25 42  1  0  0  0
 25 43  1  0  0  0
 25 44  1  0  0  0
M  END
> <s_m_entry_id>
249

> <s_m_entry_name>
pocket_pv.60

> <s_m_Source_Path>
/home/bortolaa/Project/GT/mario-master/docking/set505protein_struct_1_site_1_set505ligs_train

> <s_m_Source_File>
pocket_pv.maegz

> <i_m_Source_File_Index>
60

> <From>
www.bindingDB.org

> <BindingDB Reactant_set_id>
50485484

> <Ligand InChI>
InChI=1S/C18H19N3O4/c1-22-14-6-5-11(7-15(14)23-2)21-18-12-8-16(24-3)17(25-4)9-13(12)19-10-20-18/h5-10H,1-4H3,(H,19,20,21)

> <Ligand InChI Key>
CCHZXKUIBPNVKD-UHFFFAOYSA-N

> <BindingDB MonomerID>
50290835

> <BindingDB Ligand Name>
(3,4-Dimethoxy-phenyl)-(6,7-dimethoxy-quinazolin-4-yl)-amine::CHEMBL100714::CHEMBL544833

> <Target Name Assigned by Curator or DataSource>
Epidermal growth factor receptor

> <Target Source Organism According to Curator or DataSource>
Homo sapiens

> <Ki (nM)>


> <IC50 (nM)>
2800

> <Kd (nM)>


> <EC50 (nM)>


> <kon (M-1-s-1)>


> <koff (s-1)>


> <pH>


> <Temp C>


> <Curation/DataSource>
ChEMBL

> <Article DOI>
10.1016/S0960-894X(97)10117-2

> <PMID>


> <PubChem AID>


> <Patent Number>


> <Authors>
Kubo, K; Shimizu, T; Ohyama, Si; Murooka, H; Nishitoba, T; Kato, S; Kobayashi, Y; Yagi, M; Isoe, T; Nakamura, K; Osawa, T; Izawa, T

> <Institution>
TBA

> <Link to Ligand in BindingDB>
http://www.bindingdb.org/bind/chemsearch/marvin/MolStructure.jsp?monomerid=50290835

> <Link to Ligand-Target Pair in BindingDB>
http://www.bindingdb.org/jsp/dbsearch/PrimarySearch_ki.jsp?energyterm=kJ/mole&tag=r21&monomerid=50290835&enzyme=Epidermal+growth+factor+receptor&column=ki&startPg=0&Increment=50&submit=Search

> <Ligand HET ID in PDB>


> <PDB ID(s) for Ligand-Target Complex>


> <PubChem CID>
7048595

> <PubChem SID>
104132387

> <ChEBI ID of Ligand>


> <ChEMBL ID of Ligand>
CHEMBL544833
CHEMBL100714

> <DrugBank ID of Ligand>


> <IUPHAR_GRAC ID of Ligand>


> <KEGG ID of Ligand>


> <ZINC ID of Ligand>
ZINC03815333

> <Number of Protein Chains in Target (>
1

> <BindingDB Target Chain Sequence>
MRPSGTAGAALLALLAALCPASRALEEKKVCQGTSNKLTQLGTFEDHFLSLQRMFNNCEVVLGNLEITYVQRNYDLSFLKTIQEVAGYVLIALNTVERIPLENLQIIRGNMYYENSYALAVLSNYDANKTGLKELPMRNLQEILHGAVRFSNNPALCNVESIQWRDIVSSDFLSNMSMDFQNHLGSCQKCDPSCPNGSCWGAGEENCQKLTKIICAQQCSGRCRGKSPSDCCHNQCAAGCTGPRESDCLVCRKFRDEATCKDTCPPLMLYNPTTYQMDVNPEGKYSFGATCVKKCPRNYVVTDHGSCVRACGADSYEMEEDGVRKCKKCEGPCRKVCNGIGIGEFKDSLSINATNIKHFKNCTSISGDLHILPVAFRGDSFTHTPPLDPQELDILKTVKEITGFLLIQAWPENRTDLHAFENLEIIRGRTKQHGQFSLAVVSLNITSLGLRSLKEISDGDVIISGNKNLCYANTINWKKLFGTSGQKTKIISNRGENSCKATGQVCHALCSPEGCWGPEPRDCVSCRNVSRGRECVDKCNLLEGEPREFVENSECIQCHPECLPQAMNITCTGRGPDNCIQCAHYIDGPHCVKTCPAGVMGENNTLVWKYADAGHVCHLCHPNCTYGCTGPGLEGCPTNGPKIPSIATGMVGALLLLLVVALGIGLFMRRRHIVRKRTLRRLLQERELVEPLTPSGEAPNQALLRILKETEFKKIKVLGSGAFGTVYKGLWIPEGEKVKIPVAIKELREATSPKANKEILDEAYVMASVDNPHVCRLLGICLTSTVQLITQLMPFGCLLDYVREHKDNIGSQYLLNWCVQIAKGMNYLEDRRLVHRDLAARNVLVKTPQHVKITDFGLAKLLGAEEKEYHAEGGKVPIKWMALESILHRIYTHQSDVWSYGVTVWELMTFGSKPYDGIPASEISSILEKGERLPQPPICTIDVYMIMVKCWMIDADSRPKFRELIIEFSKMARDPQRYLVIQGDERMHLPSPTDSNFYRALMDEEDMDDVVDADEYLIPQQGFFSSPSTSRTPLLSSLSATSNNSTVACIDRNGLQSCPIKEDSFLQRYSSDPTGALTEDSIDDTFLPVPEYINQSVPKRPAGSVQNPVYHNQPLNPAPSRDPHYQDPHSTAVGNPEYLNTVQPTCVNSTFDSPAHWAQKGSHQISLDNPDYQQDFFPKEAKPNGIFKGSTAENAEYLRVAPQSSEFIGA

> <PDB ID(s) of Target Chain>
1IVO,1M14,1M17,1MOX,1XKK,1Z9I,2GS2,2GS6,2ITW,2ITX,2ITY,2J5E,2J5F,2J6M,2RF9,2RGP,3B2V,3BEL,3GOP,3POZ,3QWQ,3VJO,3W2O,3W2P,3W2Q,3W2R,3W2S,3W32,3W33,4G5J,4I23,4JQ7,4JQ8,4JR3,4JRV,4KRO,4LI5,4RJ4,4RJ5,4RJ6,4RJ7,4RJ8,4TKS,4UIP,4UV7,4WKQ,4WRG,4ZAU,5C8K,5C8M,5C8N,5CAL,5CAN,5CAO,5CAP,5CAQ,5CAS,5CAU,5CAV,5EDP,5EDQ,5EDR,5EM5,5EM6,5EM7,5EM8,5FED,5GNK,5HCX,5HCY,5HCZ,5HIB,5HIC,5UGB,5WB7,5WB8,5Y25,6S89,6S8A

> <UniProt (SwissProt) Recommended Name of Target Chain>
Epidermal growth factor receptor

> <UniProt (SwissProt) Entry Name of Target Chain>
EGFR_HUMAN

> <UniProt (SwissProt) Primary ID of Target Chain>
P00533

> <UniProt (SwissProt) Secondary ID(s) of Target Chain>
O00688,O00732,P06268,Q14225,Q68GS5,Q92795,Q9BZS2,Q9GZX1,Q9H2C9,Q9H3C9,Q9UMD7,Q9UMD8,Q9UMG5

> <UniProt (SwissProt) Alternative ID(s) of Target Chain>


> <UniProt (TrEMBL) Submitted Name of Target Chain>


> <UniProt (TrEMBL) Entry Name of Target Chain>


> <UniProt (TrEMBL) Primary ID of Target Chain>


> <UniProt (TrEMBL) Secondary ID(s) of Target Chain>


> <UniProt (TrEMBL) Alternative ID(s) of Target Chain>


> <training label>
5.55284

> <i_lp_mmshare_version>
54117

> <s_epik_input>
W0NIM11PYyhbY0hdMSljKE9bQ0gzXSlbY0hdYyhjMTIpbltjSF1uYzJbTkhdYyhbY0hdYzNPW0NIM10pW2NIXVtjSF1jM09bQ0gzXQ==

> <s_epik_cmdline>
J2VwaWtfcHl0aG9uJywgJy1waHQnLCAnMC4xJywgJy1waCcsICc3LjQnLCAnLXRuJywgJzgnLCAnLW1hJywgJzIwMCcsICctaW1hZScsICc8aW5maWxlLm1hZT4nLCAnLW9tYWUnLCAnPG91dGZpbGUubWFlPic=

> <r_lp_tautomer_probability>
1

> <r_epik_Ionization_Penalty>
  0.0006

> <r_epik_Ionization_Penalty_Charging>
  0.0000

> <r_epik_Ionization_Penalty_Neutral>
  0.0006

> <r_epik_State_Penalty>
  0.0000

> <r_epik_Charging_Adjusted_Penalty>
0

> <i_epik_Tot_Q>
0

> <i_epik_Tot_abs_Q>
0

> <i_f3d_flags>
0

> <s_lp_Force_Field>
OPLS_2005

> <r_lp_Energy>
28.947758

> <b_lp_Chiralities_Consistent>
1

> <s_lp_Variant>
BindingDB_50290835_mol_1-1

> <s_i_glide_gridfile>
struct_1_site_1

> <i_i_glide_lignum>
53

> <i_i_glide_rotatable_bonds>
6

> <r_i_docking_score>
-7.93338567154803

> <r_i_glide_ligand_efficiency>
-0.317335426861921

> <r_i_glide_ligand_efficiency_sa>
-0.927894416112017

> <r_i_glide_ligand_efficiency_ln>
-1.88045014854067

> <r_i_glide_gscore>
-7.93338567154803

> <r_i_glide_lipo>
-2.9730517761617

> <r_i_glide_hbond>
-0.32

> <r_i_glide_metal>
0

> <r_i_glide_rewards>
-2.24439316066705

> <r_i_glide_evdw>
-38.5089950561523

> <r_i_glide_ecoul>
-5.30479288101196

> <r_i_glide_erotb>
0.325227950240122

> <r_i_glide_esite>
0

> <r_i_glide_emodel>
-46.4002211581283

> <r_i_glide_energy>
-43.8137879371643

> <r_i_glide_einternal>
3.34708213806152

> <i_i_glide_confnum>
1

> <i_i_glide_posenum>
360

> <r_i_glide_eff_state_penalty>
0

> <r_glide_shape_similarity>
0.821419835090637

> <s_m_subgroup_title>
505 training

> <s_m_subgroupid>
pocket_pv

> <b_m_subgroup_collapsed>
0

$$$$
BindingDB_50340918_mol_1
                    3D
 Schrodinger Suite 2021-2.
 36 38  0  0  1  0            999 V2000
   20.1705    0.5260   52.1396 C   0  0  0  0  0  0
   19.3457   -0.3737   52.8284 C   0  0  0  0  0  0
   19.9107   -1.1999   53.8216 C   0  0  0  0  0  0
   21.5297    0.6411   52.4860 C   0  0  0  0  0  0
   22.0771   -0.1627   53.5002 C   0  0  0  0  0  0
   21.2689   -1.1032   54.1734 C   0  0  0  0  0  0
   21.7930   -1.8909   55.1329 N   0  0  0  0  0  0
   23.0782   -1.7322   55.4165 C   0  0  0  0  0  0
   23.9173   -0.8880   54.8452 N   0  0  0  0  0  0
   23.4360   -0.0990   53.8719 C   0  0  0  0  0  0
   24.3617    0.7520   53.2565 N   0  0  0  0  0  0
   25.7440    0.5331   53.2347 C   0  0  0  0  0  0
   26.6568    1.5813   53.4303 C   0  0  0  0  0  0
   28.0311    1.3096   53.5487 C   0  0  0  0  0  0
   28.4830   -0.0193   53.4605 C   0  0  0  0  0  0
   27.5967   -1.0552   53.1754 C   0  0  0  0  0  0
   26.2345   -0.7723   53.0505 C   0  0  0  0  0  0
   19.5982    1.2740   51.1383 O   0  0  0  0  0  0
   18.0230   -0.3823   52.4489 O   0  0  0  0  0  0
   20.3994    1.5608   50.0055 C   0  0  0  0  0  0
   17.1128   -1.1452   53.2118 C   0  0  0  0  0  0
   30.2856   -0.4759   53.7736 Br  0  0  0  0  0  0
   26.2078    2.8403   53.5758 F   0  0  0  0  0  0
   19.2999   -1.9064   54.3600 H   0  0  0  0  0  0
   22.1591    1.3472   51.9687 H   0  0  0  0  0  0
   23.4909   -2.3807   56.1758 H   0  0  0  0  0  0
   24.0295    1.6434   52.9290 H   0  0  0  0  0  0
   28.7255    2.1120   53.7521 H   0  0  0  0  0  0
   27.9490   -2.0736   53.0944 H   0  0  0  0  0  0
   25.5569   -1.5912   52.8535 H   0  0  0  0  0  0
   19.7548    1.8705   49.1837 H   0  0  0  0  0  0
   20.9602    0.6838   49.6740 H   0  0  0  0  0  0
   21.0914    2.3781   50.2143 H   0  0  0  0  0  0
   16.0978   -0.9629   52.8632 H   0  0  0  0  0  0
   17.3088   -2.2145   53.1027 H   0  0  0  0  0  0
   17.1445   -0.8802   54.2701 H   0  0  0  0  0  0
  1  2  2  0  0  0
  1  4  1  0  0  0
  1 18  1  0  0  0
  2  3  1  0  0  0
  2 19  1  0  0  0
  3  6  2  0  0  0
  3 24  1  0  0  0
  4  5  2  0  0  0
  4 25  1  0  0  0
  5  6  1  0  0  0
  5 10  1  0  0  0
  6  7  1  0  0  0
  7  8  2  0  0  0
  8  9  1  0  0  0
  8 26  1  0  0  0
  9 10  2  0  0  0
 10 11  1  0  0  0
 11 12  1  0  0  0
 11 27  1  0  0  0
 12 13  2  0  0  0
 12 17  1  0  0  0
 13 14  1  0  0  0
 13 23  1  0  0  0
 14 15  2  0  0  0
 14 28  1  0  0  0
 15 16  1  0  0  0
 15 22  1  0  0  0
 16 17  2  0  0  0
 16 29  1  0  0  0
 17 30  1  0  0  0
 18 20  1  0  0  0
 19 21  1  0  0  0
 20 31  1  0  0  0
 20 32  1  0  0  0
 20 33  1  0  0  0
 21 34  1  0  0  0
 21 35  1  0  0  0
 21 36  1  0  0  0
M  END
> <s_m_entry_id>
250

> <s_m_entry_name>
pocket_pv.61

> <s_m_Source_Path>
/home/bortolaa/Project/GT/mario-master/docking/set505protein_struct_1_site_1_set505ligs_train

> <s_m_Source_File>
pocket_pv.maegz

> <i_m_Source_File_Index>
61

> <From>
www.bindingDB.org

> <BindingDB Reactant_set_id>
50632202

> <Ligand InChI>
InChI=1S/C16H13BrFN3O2/c1-22-14-6-10-13(7-15(14)23-2)19-8-20-16(10)21-12-4-3-9(17)5-11(12)18/h3-8H,1-2H3,(H,19,20,21)

> <Ligand InChI Key>
VHFBRSZCMAZULY-UHFFFAOYSA-N

> <BindingDB MonomerID>
50340918

> <BindingDB Ligand Name>
4-(4-Bromo-2-fluoroanilino)-6,7-dimethoxyquinazoline::CHEMBL1277620::N-(4-bromo-2-fluorophenyl)-6,7-dimethoxyquinazolin-4-amine

> <Target Name Assigned by Curator or DataSource>
Epidermal growth factor receptor

> <Target Source Organism According to Curator or DataSource>
Homo sapiens

> <Ki (nM)>


> <IC50 (nM)>
5700

> <Kd (nM)>


> <EC50 (nM)>


> <kon (M-1-s-1)>


> <koff (s-1)>


> <pH>


> <Temp C>


> <Curation/DataSource>
ChEMBL

> <Article DOI>
10.1016/j.bmcl.2011.01.137

> <PubChem AID>


> <Patent Number>


> <Authors>
Garofalo, A; Goossens, L; Six, P; Lemoine, A; Ravez, S; Farce, A; Depreux, P

> <Institution>
Univ Lille Nord de France, F-59000 Lille, France; UDSL, ICPAL, EA 4481, F-59006 Lille, France.

> <Link to Ligand in BindingDB>
http://www.bindingdb.org/bind/chemsearch/marvin/MolStructure.jsp?monomerid=50340918

> <Link to Ligand-Target Pair in BindingDB>
http://www.bindingdb.org/jsp/dbsearch/PrimarySearch_ki.jsp?energyterm=kJ/mole&tag=r21&monomerid=50340918&enzyme=Epidermal+growth+factor+receptor&column=ki&startPg=0&Increment=50&submit=Search

> <Ligand HET ID in PDB>


> <PDB ID(s) for Ligand-Target Complex>


> <PubChem CID>
21701562

> <PubChem SID>
131343854

> <ChEBI ID of Ligand>


> <ChEMBL ID of Ligand>
CHEMBL1277620

> <DrugBank ID of Ligand>


> <IUPHAR_GRAC ID of Ligand>


> <KEGG ID of Ligand>


> <ZINC ID of Ligand>
ZINC57524293

> <Number of Protein Chains in Target (>
1

> <BindingDB Target Chain Sequence>
MRPSGTAGAALLALLAALCPASRALEEKKVCQGTSNKLTQLGTFEDHFLSLQRMFNNCEVVLGNLEITYVQRNYDLSFLKTIQEVAGYVLIALNTVERIPLENLQIIRGNMYYENSYALAVLSNYDANKTGLKELPMRNLQEILHGAVRFSNNPALCNVESIQWRDIVSSDFLSNMSMDFQNHLGSCQKCDPSCPNGSCWGAGEENCQKLTKIICAQQCSGRCRGKSPSDCCHNQCAAGCTGPRESDCLVCRKFRDEATCKDTCPPLMLYNPTTYQMDVNPEGKYSFGATCVKKCPRNYVVTDHGSCVRACGADSYEMEEDGVRKCKKCEGPCRKVCNGIGIGEFKDSLSINATNIKHFKNCTSISGDLHILPVAFRGDSFTHTPPLDPQELDILKTVKEITGFLLIQAWPENRTDLHAFENLEIIRGRTKQHGQFSLAVVSLNITSLGLRSLKEISDGDVIISGNKNLCYANTINWKKLFGTSGQKTKIISNRGENSCKATGQVCHALCSPEGCWGPEPRDCVSCRNVSRGRECVDKCNLLEGEPREFVENSECIQCHPECLPQAMNITCTGRGPDNCIQCAHYIDGPHCVKTCPAGVMGENNTLVWKYADAGHVCHLCHPNCTYGCTGPGLEGCPTNGPKIPSIATGMVGALLLLLVVALGIGLFMRRRHIVRKRTLRRLLQERELVEPLTPSGEAPNQALLRILKETEFKKIKVLGSGAFGTVYKGLWIPEGEKVKIPVAIKELREATSPKANKEILDEAYVMASVDNPHVCRLLGICLTSTVQLITQLMPFGCLLDYVREHKDNIGSQYLLNWCVQIAKGMNYLEDRRLVHRDLAARNVLVKTPQHVKITDFGLAKLLGAEEKEYHAEGGKVPIKWMALESILHRIYTHQSDVWSYGVTVWELMTFGSKPYDGIPASEISSILEKGERLPQPPICTIDVYMIMVKCWMIDADSRPKFRELIIEFSKMARDPQRYLVIQGDERMHLPSPTDSNFYRALMDEEDMDDVVDADEYLIPQQGFFSSPSTSRTPLLSSLSATSNNSTVACIDRNGLQSCPIKEDSFLQRYSSDPTGALTEDSIDDTFLPVPEYINQSVPKRPAGSVQNPVYHNQPLNPAPSRDPHYQDPHSTAVGNPEYLNTVQPTCVNSTFDSPAHWAQKGSHQISLDNPDYQQDFFPKEAKPNGIFKGSTAENAEYLRVAPQSSEFIGA

> <PDB ID(s) of Target Chain>
1IVO,1M14,1M17,1MOX,1XKK,1Z9I,2GS2,2GS6,2ITW,2ITX,2ITY,2J5E,2J5F,2J6M,2RF9,2RGP,3B2V,3BEL,3GOP,3POZ,3QWQ,3VJO,3W2O,3W2P,3W2Q,3W2R,3W2S,3W32,3W33,4G5J,4I23,4JQ7,4JQ8,4JR3,4JRV,4KRO,4LI5,4RJ4,4RJ5,4RJ6,4RJ7,4RJ8,4TKS,4UIP,4UV7,4WKQ,4WRG,4ZAU,5C8K,5C8M,5C8N,5CAL,5CAN,5CAO,5CAP,5CAQ,5CAS,5CAU,5CAV,5EDP,5EDQ,5EDR,5EM5,5EM6,5EM7,5EM8,5FED,5GNK,5HCX,5HCY,5HCZ,5HIB,5HIC,5UGB,5WB7,5WB8,5Y25,6S89,6S8A

> <UniProt (SwissProt) Recommended Name of Target Chain>
Epidermal growth factor receptor

> <UniProt (SwissProt) Entry Name of Target Chain>
EGFR_HUMAN

> <UniProt (SwissProt) Primary ID of Target Chain>
P00533

> <UniProt (SwissProt) Secondary ID(s) of Target Chain>
O00688,O00732,P06268,Q14225,Q68GS5,Q92795,Q9BZS2,Q9GZX1,Q9H2C9,Q9H3C9,Q9UMD7,Q9UMD8,Q9UMG5

> <UniProt (SwissProt) Alternative ID(s) of Target Chain>


> <UniProt (TrEMBL) Submitted Name of Target Chain>


> <UniProt (TrEMBL) Entry Name of Target Chain>


> <UniProt (TrEMBL) Primary ID of Target Chain>


> <UniProt (TrEMBL) Secondary ID(s) of Target Chain>


> <UniProt (TrEMBL) Alternative ID(s) of Target Chain>


> <training label>
5.24413

> <i_lp_mmshare_version>
54117

> <s_epik_input>
W0NIM11PYyhbY0hdMSljKE9bQ0gzXSlbY0hdYyhjMTIpbltjSF1uYzJbTkhdYzNjKEYpW2NIXWMoQnIpW2NIXVtjSF0z

> <s_epik_cmdline>
J2VwaWtfcHl0aG9uJywgJy1waHQnLCAnMC4xJywgJy1waCcsICc3LjQnLCAnLXRuJywgJzgnLCAnLW1hJywgJzIwMCcsICctaW1hZScsICc8aW5maWxlLm1hZT4nLCAnLW9tYWUnLCAnPG91dGZpbGUubWFlPic=

> <r_lp_tautomer_probability>
1

> <r_epik_Ionization_Penalty>
  0.0006

> <r_epik_Ionization_Penalty_Charging>
  0.0000

> <r_epik_Ionization_Penalty_Neutral>
  0.0006

> <r_epik_State_Penalty>
  0.0000

> <r_epik_Charging_Adjusted_Penalty>
0

> <i_epik_Tot_Q>
0

> <i_epik_Tot_abs_Q>
0

> <i_f3d_flags>
0

> <s_lp_Force_Field>
OPLS_2005

> <r_lp_Energy>
18.414831

> <b_lp_Chiralities_Consistent>
1

> <s_lp_Variant>
BindingDB_50340918_mol_1-1

> <s_i_glide_gridfile>
struct_1_site_1

> <i_i_glide_lignum>
34

> <i_i_glide_rotatable_bonds>
4

> <r_i_docking_score>
-7.9199575525372

> <r_i_glide_ligand_efficiency>
-0.344345980545095

> <r_i_glide_ligand_efficiency_sa>
-0.979274162693304

> <r_i_glide_ligand_efficiency_ln>
-1.91511755040812

> <r_i_glide_gscore>
-7.9199575525372

> <r_i_glide_lipo>
-3.22849504114874

> <r_i_glide_hbond>
-0.32

> <r_i_glide_metal>
0

> <r_i_glide_rewards>
-1.987357981631

> <r_i_glide_evdw>
-40.0844497680664

> <r_i_glide_ecoul>
-3.67214965820312

> <r_i_glide_erotb>
0.270940407376338

> <r_i_glide_esite>
-0.1

> <r_i_glide_emodel>
-40.1600819897792

> <r_i_glide_energy>
-43.7565994262695

> <r_i_glide_einternal>
1.71141874790192

> <i_i_glide_confnum>
2

> <i_i_glide_posenum>
52

> <r_i_glide_eff_state_penalty>
0

> <PMID>
21353546

> <r_glide_shape_similarity>
0.774514138698578

> <s_m_subgroup_title>
505 training

> <s_m_subgroupid>
pocket_pv

> <b_m_subgroup_collapsed>
0

$$$$
4-Anilinoquinazoline
                    3D
 Schrodinger Suite 2021-2.
 55 58  0  0  1  0            999 V2000
   23.4587   -0.1018   53.8724 C   0  0  0  0  0  0
   23.0936   -1.7533   55.4241 C   0  0  0  0  0  0
   21.2729   -1.1083   54.1833 C   0  0  0  0  0  0
   22.0877   -0.1578   53.5005 C   0  0  0  0  0  0
   21.5379    0.6560   52.4830 C   0  0  0  0  0  0
   20.1720    0.5390   52.1290 C   0  0  0  0  0  0
   19.3480   -0.3766   52.8239 C   0  0  0  0  0  0
   19.9074   -1.2049   53.8358 C   0  0  0  0  0  0
   23.9364   -0.9091   54.8455 N   0  0  0  0  0  0
   21.7990   -1.9032   55.1441 N   0  0  0  0  0  0
   25.8028    0.5129   53.2372 C   0  0  0  0  0  0
   28.1199    1.2858   53.5300 C   0  0  0  0  0  0
   26.7330    1.5668   53.4286 C   0  0  0  0  0  0
   26.2987   -0.8077   53.0666 C   0  0  0  0  0  0
   27.6719   -1.0964   53.1861 C   0  0  0  0  0  0
   28.5776   -0.0532   53.4441 C   0  0  0  0  0  0
   26.2873    2.8351   53.5732 F   0  0  0  0  0  0
   24.4075    0.7447   53.2567 N   0  0  0  0  0  0
   24.0855    1.6498   52.9386 H   0  0  0  0  0  0
   19.5957    1.2911   51.1209 O   0  0  0  0  0  0
   20.4009    1.6219   49.9907 C   0  0  0  0  0  0
   18.0267   -0.3992   52.4330 O   0  0  0  0  0  0
   17.1643   -1.3617   53.0105 C   0  0  0  0  0  0
   30.2372   -0.4592   53.6803 Cl  0  0  0  0  0  0
   15.7408   -1.0520   52.5301 C   0  0  0  0  0  0
   15.2414    0.2862   53.1061 C   0  0  0  0  0  0
   13.3046    1.8446   53.2722 C   0  0  0  0  0  0
   11.7980    1.6971   53.5602 C   0  0  0  0  0  0
   11.6708    0.2847   54.1654 C   0  0  0  0  0  0
   12.9292   -0.4852   53.6971 C   0  0  0  0  0  0
   13.7792    0.4745   52.9308 N   0  3  0  0  0  0
   23.5050   -2.4087   56.1759 H   0  0  0  0  0  0
   22.1685    1.3633   51.9670 H   0  0  0  0  0  0
   19.3071   -1.9196   54.3749 H   0  0  0  0  0  0
   28.8207    2.0864   53.7166 H   0  0  0  0  0  0
   25.6173   -1.6271   52.8908 H   0  0  0  0  0  0
   28.0197   -2.1165   53.1067 H   0  0  0  0  0  0
   19.7607    1.9699   49.1799 H   0  0  0  0  0  0
   21.1021    2.4221   50.2262 H   0  0  0  0  0  0
   20.9553    0.7549   49.6288 H   0  0  0  0  0  0
   17.1935   -1.3193   54.1011 H   0  0  0  0  0  0
   17.4634   -2.3646   52.7035 H   0  0  0  0  0  0
   15.0991   -1.8693   52.8608 H   0  0  0  0  0  0
   15.6984   -1.0422   51.4405 H   0  0  0  0  0  0
   15.7769    1.1072   52.6242 H   0  0  0  0  0  0
   15.4611    0.3311   54.1722 H   0  0  0  0  0  0
   13.5100    2.5593   52.4737 H   0  0  0  0  0  0
   13.8119    2.1957   54.1732 H   0  0  0  0  0  0
   11.2253    1.7602   52.6292 H   0  0  0  0  0  0
   11.4219    2.4755   54.2279 H   0  0  0  0  0  0
   11.6554    0.3453   55.2556 H   0  0  0  0  0  0
   10.7464   -0.2043   53.8511 H   0  0  0  0  0  0
   13.4577   -0.8673   54.5702 H   0  0  0  0  0  0
   12.6676   -1.3361   53.0683 H   0  0  0  0  0  0
   13.5727    0.3338   51.9462 H   0  0  0  0  0  0
  1  4  2  0  0  0
  1  9  1  0  0  0
  1 18  1  0  0  0
  2  9  2  0  0  0
  2 10  1  0  0  0
  2 32  1  0  0  0
  3  4  1  0  0  0
  3  8  1  0  0  0
  3 10  2  0  0  0
  4  5  1  0  0  0
  5  6  2  0  0  0
  5 33  1  0  0  0
  6  7  1  0  0  0
  6 20  1  0  0  0
  7  8  2  0  0  0
  7 22  1  0  0  0
  8 34  1  0  0  0
 11 13  2  0  0  0
 11 14  1  0  0  0
 11 18  1  0  0  0
 12 13  1  0  0  0
 12 16  2  0  0  0
 12 35  1  0  0  0
 13 17  1  0  0  0
 14 15  2  0  0  0
 14 36  1  0  0  0
 15 16  1  0  0  0
 15 37  1  0  0  0
 16 24  1  0  0  0
 18 19  1  0  0  0
 20 21  1  0  0  0
 21 38  1  0  0  0
 21 39  1  0  0  0
 21 40  1  0  0  0
 22 23  1  0  0  0
 23 25  1  0  0  0
 23 41  1  0  0  0
 23 42  1  0  0  0
 25 26  1  0  0  0
 25 43  1  0  0  0
 25 44  1  0  0  0
 26 31  1  0  0  0
 26 45  1  0  0  0
 26 46  1  0  0  0
 27 28  1  0  0  0
 27 31  1  0  0  0
 27 47  1  0  0  0
 27 48  1  0  0  0
 28 29  1  0  0  0
 28 49  1  0  0  0
 28 50  1  0  0  0
 29 30  1  0  0  0
 29 51  1  0  0  0
 29 52  1  0  0  0
 30 31  1  0  0  0
 30 53  1  0  0  0
 30 54  1  0  0  0
 31 55  1  0  0  0
M  CHG  1  31   1
M  END
> <s_m_entry_id>
251

> <s_m_entry_name>
pocket_pv.62

> <s_m_Source_Path>
/home/bortolaa/Project/GT/mario-master/docking/set505protein_struct_1_site_1_set505ligs_train

> <s_m_Source_File>
pocket_pv.maegz

> <i_m_Source_File_Index>
62

> <From>
www.bindingDB.org

> <BindingDB Reactant_set_id>
7076

> <Ligand InChI>
InChI=1S/C22H24ClFN4O2/c1-29-20-12-16-19(13-21(20)30-10-4-9-28-7-2-3-8-28)25-14-26-22(16)27-18-6-5-15(23)11-17(18)24/h5-6,11-14H,2-4,7-10H2,1H3,(H,25,26,27)

> <Ligand InChI Key>
KQVFLNYZDGJFNM-UHFFFAOYSA-N

> <BindingDB MonomerID>
4662

> <BindingDB Ligand Name>
4-Anilinoquinazoline 9::N-(4-Chloro-2-fluorophenyl)-6-methoxy-7-(3-pyrrolidin-1-ylpropoxy)quinazolin-4-amine::N-(4-chloro-2-fluorophenyl)-6-methoxy-7-[3-(pyrrolidin-1-yl)propoxy]quinazolin-4-amine

> <Target Name Assigned by Curator or DataSource>
Epidermal growth factor receptor

> <Target Source Organism According to Curator or DataSource>
Homo sapiens

> <Ki (nM)>


> <Kd (nM)>


> <EC50 (nM)>


> <kon (M-1-s-1)>


> <koff (s-1)>


> <pH>


> <Curation/DataSource>
Curated from the literature by BindingDB

> <Article DOI>
10.1021/jm011022e

> <PubChem AID>


> <Patent Number>


> <Authors>
Hennequin, LF; Stokes, ES; Thomas, AP; Johnstone, C; Ple, PA; Ogilvie, DJ; Dukes, M; Wedge, SR; Kendrew, J; Curwen, JO

> <Institution>
AstraZeneca

> <Link to Ligand in BindingDB>
http://www.bindingdb.org/bind/chemsearch/marvin/MolStructure.jsp?monomerid=4662

> <Link to Ligand-Target Pair in BindingDB>
http://www.bindingdb.org/jsp/dbsearch/PrimarySearch_ki.jsp?energyterm=kJ/mole&tag=r21&monomerid=4662&enzyme=Epidermal+growth+factor+receptor&column=ki&startPg=0&Increment=50&submit=Search

> <Ligand HET ID in PDB>


> <PDB ID(s) for Ligand-Target Complex>


> <PubChem CID>
5329037

> <PubChem SID>
8034321

> <ChEBI ID of Ligand>


> <ChEMBL ID of Ligand>


> <DrugBank ID of Ligand>


> <IUPHAR_GRAC ID of Ligand>


> <KEGG ID of Ligand>


> <ZINC ID of Ligand>
ZINC13472783

> <Number of Protein Chains in Target (>
1

> <BindingDB Target Chain Sequence>
MRPSGTAGAALLALLAALCPASRALEEKKVCQGTSNKLTQLGTFEDHFLSLQRMFNNCEVVLGNLEITYVQRNYDLSFLKTIQEVAGYVLIALNTVERIPLENLQIIRGNMYYENSYALAVLSNYDANKTGLKELPMRNLQEILHGAVRFSNNPALCNVESIQWRDIVSSDFLSNMSMDFQNHLGSCQKCDPSCPNGSCWGAGEENCQKLTKIICAQQCSGRCRGKSPSDCCHNQCAAGCTGPRESDCLVCRKFRDEATCKDTCPPLMLYNPTTYQMDVNPEGKYSFGATCVKKCPRNYVVTDHGSCVRACGADSYEMEEDGVRKCKKCEGPCRKVCNGIGIGEFKDSLSINATNIKHFKNCTSISGDLHILPVAFRGDSFTHTPPLDPQELDILKTVKEITGFLLIQAWPENRTDLHAFENLEIIRGRTKQHGQFSLAVVSLNITSLGLRSLKEISDGDVIISGNKNLCYANTINWKKLFGTSGQKTKIISNRGENSCKATGQVCHALCSPEGCWGPEPRDCVSCRNVSRGRECVDKCNLLEGEPREFVENSECIQCHPECLPQAMNITCTGRGPDNCIQCAHYIDGPHCVKTCPAGVMGENNTLVWKYADAGHVCHLCHPNCTYGCTGPGLEGCPTNGPKIPSIATGMVGALLLLLVVALGIGLFMRRRHIVRKRTLRRLLQERELVEPLTPSGEAPNQALLRILKETEFKKIKVLGSGAFGTVYKGLWIPEGEKVKIPVAIKELREATSPKANKEILDEAYVMASVDNPHVCRLLGICLTSTVQLITQLMPFGCLLDYVREHKDNIGSQYLLNWCVQIAKGMNYLEDRRLVHRDLAARNVLVKTPQHVKITDFGLAKLLGAEEKEYHAEGGKVPIKWMALESILHRIYTHQSDVWSYGVTVWELMTFGSKPYDGIPASEISSILEKGERLPQPPICTIDVYMIMVKCWMIDADSRPKFRELIIEFSKMARDPQRYLVIQGDERMHLPSPTDSNFYRALMDEEDMDDVVDADEYLIPQQGFFSSPSTSRTPLLSSLSATSNNSTVACIDRNGLQSCPIKEDSFLQRYSSDPTGALTEDSIDDTFLPVPEYINQSVPKRPAGSVQNPVYHNQPLNPAPSRDPHYQDPHSTAVGNPEYLNTVQPTCVNSTFDSPAHWAQKGSHQISLDNPDYQQDFFPKEAKPNGIFKGSTAENAEYLRVAPQSSEFIGA

> <PDB ID(s) of Target Chain>
1IVO,1M14,1M17,1MOX,1XKK,1Z9I,2GS2,2GS6,2ITW,2ITX,2ITY,2J5E,2J5F,2J6M,2RF9,2RGP,3B2V,3BEL,3GOP,3POZ,3QWQ,3VJO,3W2O,3W2P,3W2Q,3W2R,3W2S,3W32,3W33,4G5J,4I23,4JQ7,4JQ8,4JR3,4JRV,4KRO,4LI5,4RJ4,4RJ5,4RJ6,4RJ7,4RJ8,4TKS,4UIP,4UV7,4WKQ,4WRG,4ZAU,5C8K,5C8M,5C8N,5CAL,5CAN,5CAO,5CAP,5CAQ,5CAS,5CAU,5CAV,5EDP,5EDQ,5EDR,5EM5,5EM6,5EM7,5EM8,5FED,5GNK,5HCX,5HCY,5HCZ,5HIB,5HIC,5UGB,5WB7,5WB8,5Y25,6S89,6S8A

> <UniProt (SwissProt) Recommended Name of Target Chain>
Epidermal growth factor receptor

> <UniProt (SwissProt) Entry Name of Target Chain>
EGFR_HUMAN

> <UniProt (SwissProt) Primary ID of Target Chain>
P00533

> <UniProt (SwissProt) Secondary ID(s) of Target Chain>
O00688,O00732,P06268,Q14225,Q68GS5,Q92795,Q9BZS2,Q9GZX1,Q9H2C9,Q9H3C9,Q9UMD7,Q9UMD8,Q9UMG5

> <UniProt (SwissProt) Alternative ID(s) of Target Chain>


> <UniProt (TrEMBL) Submitted Name of Target Chain>


> <UniProt (TrEMBL) Entry Name of Target Chain>


> <UniProt (TrEMBL) Primary ID of Target Chain>


> <UniProt (TrEMBL) Secondary ID(s) of Target Chain>


> <UniProt (TrEMBL) Alternative ID(s) of Target Chain>


> <training label>
7

> <i_lp_mmshare_version>
54117

> <s_epik_input>
W2NIXTFbY0hdYyhDbClbY0hdYyhGKWMxW05IXWMobltjSF1uMiljKGMyMylbY0hdYyhPW0NIM10pYyhbY0hdMylPW0NIMl1bQ0gyXVtDSDJdTjRbQ0gyXVtDSDJdW0NIMl1bQ0gyXTQ=

> <s_epik_cmdline>
J2VwaWtfcHl0aG9uJywgJy1waHQnLCAnMC4xJywgJy1waCcsICc3LjQnLCAnLXRuJywgJzgnLCAnLW1hJywgJzIwMCcsICctaW1hZScsICc8aW5maWxlLm1hZT4nLCAnLW9tYWUnLCAnPG91dGZpbGUubWFlPic=

> <r_lp_tautomer_probability>
1

> <r_epik_Ionization_Penalty>
  0.0031

> <r_epik_Ionization_Penalty_Charging>
  0.0025

> <r_epik_Ionization_Penalty_Neutral>
  0.0006

> <r_epik_State_Penalty>
  0.0000

> <r_epik_Charging_Adjusted_Penalty>
0.00251405685651466

> <i_epik_Tot_Q>
1

> <i_epik_Tot_abs_Q>
1

> <i_f3d_flags>
0

> <s_lp_Force_Field>
OPLS_2005

> <r_lp_Energy>
45.540027

> <b_lp_Chiralities_Consistent>
1

> <s_lp_Variant>
4-Anilinoquinazoline-1

> <s_i_glide_gridfile>
struct_1_site_1

> <i_i_glide_lignum>
157

> <i_i_glide_rotatable_bonds>
8

> <r_i_docking_score>
-7.91163846131508

> <r_i_glide_ligand_efficiency>
-0.263721282043836

> <r_i_glide_ligand_efficiency_sa>
-0.819443339149404

> <r_i_glide_ligand_efficiency_ln>
-1.79761046261624

> <r_i_glide_gscore>
-7.91163846131508

> <r_i_glide_lipo>
-3.50309948867281

> <r_i_glide_hbond>
-0.32

> <r_i_glide_metal>
0

> <r_i_glide_rewards>
-1.60391024549962

> <r_i_glide_evdw>
-43.7618598937988

> <r_i_glide_ecoul>
-5.57597017288208

> <r_i_glide_erotb>
0.639859793479604

> <r_i_glide_esite>
-0.1

> <r_i_glide_emodel>
-55.6547058574236

> <r_i_glide_energy>
-49.3378300666809

> <r_i_glide_einternal>
1.92571949958801

> <i_i_glide_confnum>
103

> <i_i_glide_posenum>
368

> <r_i_glide_eff_state_penalty>
0

> <IC50 (nM)>
100

> <PMID>
11881999

> <Temp C>
25

> <r_glide_shape_similarity>
0.809615910053253

> <s_m_subgroup_title>
505 training

> <s_m_subgroupid>
pocket_pv

> <b_m_subgroup_collapsed>
0

$$$$
4-Anilinoquinazoline
                    3D
 Schrodinger Suite 2021-2.
 55 58  0  0  1  0            999 V2000
   23.4639   -0.1010   53.8714 C   0  0  0  0  0  0
   23.0668   -1.7391   55.4290 C   0  0  0  0  0  0
   21.2561   -1.0735   54.1744 C   0  0  0  0  0  0
   22.0940   -0.1413   53.4897 C   0  0  0  0  0  0
   21.5688    0.6739   52.4599 C   0  0  0  0  0  0
   20.2100    0.5617   52.0750 C   0  0  0  0  0  0
   19.3668   -0.3412   52.7548 C   0  0  0  0  0  0
   19.8878   -1.1491   53.8059 C   0  0  0  0  0  0
   23.9249   -0.9095   54.8509 N   0  0  0  0  0  0
   21.7693   -1.8711   55.1418 N   0  0  0  0  0  0
   25.8226    0.5015   53.2549 C   0  0  0  0  0  0
   28.1401    1.2847   53.5271 C   0  0  0  0  0  0
   26.7514    1.5597   53.4282 C   0  0  0  0  0  0
   26.3184   -0.8207   53.1020 C   0  0  0  0  0  0
   27.6936   -1.1048   53.2156 C   0  0  0  0  0  0
   28.5994   -0.0569   53.4599 C   0  0  0  0  0  0
   26.2952    2.8260   53.5536 F   0  0  0  0  0  0
   24.4270    0.7349   53.2626 N   0  0  0  0  0  0
   24.1143    1.6364   52.9298 H   0  0  0  0  0  0
   18.0896   -0.4109   52.2422 O   0  0  0  0  0  0
   30.2599   -0.4649   53.7168 Cl  0  0  0  0  0  0
   19.6370    1.3004   51.0526 O   0  0  0  0  0  0
   20.4822    1.8060   50.0225 C   0  0  0  0  0  0
   17.0013   -0.7821   53.0654 C   0  0  0  0  0  0
   15.7512   -0.7929   52.1523 C   0  0  1  0  0  0
   14.4995   -1.4003   52.8339 C   0  0  0  0  0  0
   13.7872   -0.3991   53.7717 C   0  0  0  0  0  0
   14.5341    1.5135   52.4363 C   0  0  0  0  0  0
   15.4048    0.5884   51.5314 C   0  0  0  0  0  0
   13.3525    0.8002   53.0072 N   0  3  2  0  0  0
   12.4741    1.7055   53.8035 C   0  0  0  0  0  0
   23.4654   -2.3895   56.1897 H   0  0  0  0  0  0
   22.2180    1.3730   51.9550 H   0  0  0  0  0  0
   19.2594   -1.8537   54.3250 H   0  0  0  0  0  0
   28.8414    2.0881   53.7041 H   0  0  0  0  0  0
   25.6332   -1.6403   52.9424 H   0  0  0  0  0  0
   28.0407   -2.1254   53.1453 H   0  0  0  0  0  0
   19.8715    2.1498   49.1846 H   0  0  0  0  0  0
   21.0712    2.6515   50.3848 H   0  0  0  0  0  0
   21.1557    1.0336   49.6415 H   0  0  0  0  0  0
   16.8779   -0.0682   53.8669 H   0  0  0  0  0  0
   17.1707   -1.7659   53.5046 H   0  0  0  0  0  0
   16.0037   -1.4614   51.3274 H   0  0  0  0  0  0
   14.7641   -2.3073   53.3748 H   0  0  0  0  0  0
   13.8021   -1.7217   52.0579 H   0  0  0  0  0  0
   14.4450   -0.0659   54.5745 H   0  0  0  0  0  0
   12.9328   -0.8868   54.2440 H   0  0  0  0  0  0
   15.0891    1.9231   53.2719 H   0  0  0  0  0  0
   14.1942    2.3708   51.8542 H   0  0  0  0  0  0
   14.8509    0.4102   50.6089 H   0  0  0  0  0  0
   16.3115    1.1087   51.2234 H   0  0  0  0  0  0
   13.0123    2.1066   54.6615 H   0  0  0  0  0  0
   12.1204    2.5372   53.1939 H   0  0  0  0  0  0
   11.5960    1.1724   54.1688 H   0  0  0  0  0  0
   12.7899    0.4733   52.2280 H   0  0  0  0  0  0
  1  4  2  0  0  0
  1  9  1  0  0  0
  1 18  1  0  0  0
  2  9  2  0  0  0
  2 10  1  0  0  0
  2 32  1  0  0  0
  3  4  1  0  0  0
  3  8  1  0  0  0
  3 10  2  0  0  0
  4  5  1  0  0  0
  5  6  2  0  0  0
  5 33  1  0  0  0
  6  7  1  0  0  0
  6 22  1  0  0  0
  7  8  2  0  0  0
  7 20  1  0  0  0
  8 34  1  0  0  0
 11 13  2  0  0  0
 11 14  1  0  0  0
 11 18  1  0  0  0
 12 13  1  0  0  0
 12 16  2  0  0  0
 12 35  1  0  0  0
 13 17  1  0  0  0
 14 15  2  0  0  0
 14 36  1  0  0  0
 15 16  1  0  0  0
 15 37  1  0  0  0
 16 21  1  0  0  0
 18 19  1  0  0  0
 20 24  1  0  0  0
 22 23  1  0  0  0
 23 38  1  0  0  0
 23 39  1  0  0  0
 23 40  1  0  0  0
 24 25  1  0  0  0
 24 41  1  0  0  0
 24 42  1  0  0  0
 25 26  1  0  0  0
 25 29  1  0  0  0
 25 43  1  0  0  0
 26 27  1  0  0  0
 26 44  1  0  0  0
 26 45  1  0  0  0
 27 30  1  0  0  0
 27 46  1  0  0  0
 27 47  1  0  0  0
 28 29  1  0  0  0
 28 30  1  0  0  0
 28 48  1  0  0  0
 28 49  1  0  0  0
 29 50  1  0  0  0
 29 51  1  0  0  0
 30 31  1  0  0  0
 30 55  1  0  0  0
 31 52  1  0  0  0
 31 53  1  0  0  0
 31 54  1  0  0  0
M  CHG  1  30   1
M  END
> <s_m_entry_id>
252

> <s_m_entry_name>
pocket_pv.63

> <s_m_Source_Path>
/home/bortolaa/Project/GT/mario-master/docking/set505protein_struct_1_site_1_set505ligs_train

> <s_m_Source_File>
pocket_pv.maegz

> <i_m_Source_File_Index>
63

> <From>
www.bindingDB.org

> <BindingDB Reactant_set_id>
7081

> <Ligand InChI>
InChI=1S/C22H24ClFN4O2/c1-28-7-5-14(6-8-28)12-30-21-11-19-16(10-20(21)29-2)22(26-13-25-19)27-18-4-3-15(23)9-17(18)24/h3-4,9-11,13-14H,5-8,12H2,1-2H3,(H,25,26,27)

> <Ligand InChI Key>
KNAJKXGUAHBQTI-UHFFFAOYSA-N

> <BindingDB MonomerID>
4668

> <BindingDB Ligand Name>
4-Anilinoquinazoline 15::N-(4-chloro-2-fluorophenyl)-6-methoxy-7-[(1-methylpiperidin-4-yl)methoxy]quinazolin-4-amine

> <Target Name Assigned by Curator or DataSource>
Epidermal growth factor receptor

> <Target Source Organism According to Curator or DataSource>
Homo sapiens

> <Ki (nM)>


> <Kd (nM)>


> <EC50 (nM)>


> <kon (M-1-s-1)>


> <koff (s-1)>


> <pH>


> <Curation/DataSource>
Curated from the literature by BindingDB

> <Article DOI>
10.1021/jm011022e

> <PubChem AID>


> <Patent Number>


> <Authors>
Hennequin, LF; Stokes, ES; Thomas, AP; Johnstone, C; Ple, PA; Ogilvie, DJ; Dukes, M; Wedge, SR; Kendrew, J; Curwen, JO

> <Institution>
AstraZeneca

> <Link to Ligand in BindingDB>
http://www.bindingdb.org/bind/chemsearch/marvin/MolStructure.jsp?monomerid=4668

> <Link to Ligand-Target Pair in BindingDB>
http://www.bindingdb.org/jsp/dbsearch/PrimarySearch_ki.jsp?energyterm=kJ/mole&tag=r21&monomerid=4668&enzyme=Epidermal+growth+factor+receptor&column=ki&startPg=0&Increment=50&submit=Search

> <Ligand HET ID in PDB>


> <PDB ID(s) for Ligand-Target Complex>


> <PubChem CID>
5329041

> <PubChem SID>
8034325

> <ChEBI ID of Ligand>


> <ChEMBL ID of Ligand>


> <DrugBank ID of Ligand>


> <IUPHAR_GRAC ID of Ligand>


> <KEGG ID of Ligand>


> <ZINC ID of Ligand>
ZINC08662762

> <Number of Protein Chains in Target (>
1

> <BindingDB Target Chain Sequence>
MRPSGTAGAALLALLAALCPASRALEEKKVCQGTSNKLTQLGTFEDHFLSLQRMFNNCEVVLGNLEITYVQRNYDLSFLKTIQEVAGYVLIALNTVERIPLENLQIIRGNMYYENSYALAVLSNYDANKTGLKELPMRNLQEILHGAVRFSNNPALCNVESIQWRDIVSSDFLSNMSMDFQNHLGSCQKCDPSCPNGSCWGAGEENCQKLTKIICAQQCSGRCRGKSPSDCCHNQCAAGCTGPRESDCLVCRKFRDEATCKDTCPPLMLYNPTTYQMDVNPEGKYSFGATCVKKCPRNYVVTDHGSCVRACGADSYEMEEDGVRKCKKCEGPCRKVCNGIGIGEFKDSLSINATNIKHFKNCTSISGDLHILPVAFRGDSFTHTPPLDPQELDILKTVKEITGFLLIQAWPENRTDLHAFENLEIIRGRTKQHGQFSLAVVSLNITSLGLRSLKEISDGDVIISGNKNLCYANTINWKKLFGTSGQKTKIISNRGENSCKATGQVCHALCSPEGCWGPEPRDCVSCRNVSRGRECVDKCNLLEGEPREFVENSECIQCHPECLPQAMNITCTGRGPDNCIQCAHYIDGPHCVKTCPAGVMGENNTLVWKYADAGHVCHLCHPNCTYGCTGPGLEGCPTNGPKIPSIATGMVGALLLLLVVALGIGLFMRRRHIVRKRTLRRLLQERELVEPLTPSGEAPNQALLRILKETEFKKIKVLGSGAFGTVYKGLWIPEGEKVKIPVAIKELREATSPKANKEILDEAYVMASVDNPHVCRLLGICLTSTVQLITQLMPFGCLLDYVREHKDNIGSQYLLNWCVQIAKGMNYLEDRRLVHRDLAARNVLVKTPQHVKITDFGLAKLLGAEEKEYHAEGGKVPIKWMALESILHRIYTHQSDVWSYGVTVWELMTFGSKPYDGIPASEISSILEKGERLPQPPICTIDVYMIMVKCWMIDADSRPKFRELIIEFSKMARDPQRYLVIQGDERMHLPSPTDSNFYRALMDEEDMDDVVDADEYLIPQQGFFSSPSTSRTPLLSSLSATSNNSTVACIDRNGLQSCPIKEDSFLQRYSSDPTGALTEDSIDDTFLPVPEYINQSVPKRPAGSVQNPVYHNQPLNPAPSRDPHYQDPHSTAVGNPEYLNTVQPTCVNSTFDSPAHWAQKGSHQISLDNPDYQQDFFPKEAKPNGIFKGSTAENAEYLRVAPQSSEFIGA

> <PDB ID(s) of Target Chain>
1IVO,1M14,1M17,1MOX,1XKK,1Z9I,2GS2,2GS6,2ITW,2ITX,2ITY,2J5E,2J5F,2J6M,2RF9,2RGP,3B2V,3BEL,3GOP,3POZ,3QWQ,3VJO,3W2O,3W2P,3W2Q,3W2R,3W2S,3W32,3W33,4G5J,4I23,4JQ7,4JQ8,4JR3,4JRV,4KRO,4LI5,4RJ4,4RJ5,4RJ6,4RJ7,4RJ8,4TKS,4UIP,4UV7,4WKQ,4WRG,4ZAU,5C8K,5C8M,5C8N,5CAL,5CAN,5CAO,5CAP,5CAQ,5CAS,5CAU,5CAV,5EDP,5EDQ,5EDR,5EM5,5EM6,5EM7,5EM8,5FED,5GNK,5HCX,5HCY,5HCZ,5HIB,5HIC,5UGB,5WB7,5WB8,5Y25,6S89,6S8A

> <UniProt (SwissProt) Recommended Name of Target Chain>
Epidermal growth factor receptor

> <UniProt (SwissProt) Entry Name of Target Chain>
EGFR_HUMAN

> <UniProt (SwissProt) Primary ID of Target Chain>
P00533

> <UniProt (SwissProt) Secondary ID(s) of Target Chain>
O00688,O00732,P06268,Q14225,Q68GS5,Q92795,Q9BZS2,Q9GZX1,Q9H2C9,Q9H3C9,Q9UMD7,Q9UMD8,Q9UMG5

> <UniProt (SwissProt) Alternative ID(s) of Target Chain>


> <UniProt (TrEMBL) Submitted Name of Target Chain>


> <UniProt (TrEMBL) Entry Name of Target Chain>


> <UniProt (TrEMBL) Primary ID of Target Chain>


> <UniProt (TrEMBL) Secondary ID(s) of Target Chain>


> <UniProt (TrEMBL) Alternative ID(s) of Target Chain>


> <training label>
6.52288

> <i_lp_mmshare_version>
54117

> <s_epik_input>
W2NIXTFbY0hdYyhDbClbY0hdYyhGKWMxW05IXWMobltjSF1uMiljKGMyMylbY0hdYyhPW0NIM10pYyhbY0hdMylPW0NIMl1bQ0hdNFtDSDJdW0NIMl1OKFtDSDNdKVtDSDJdW0NIMl00

> <s_epik_cmdline>
J2VwaWtfcHl0aG9uJywgJy1waHQnLCAnMC4xJywgJy1waCcsICc3LjQnLCAnLXRuJywgJzgnLCAnLW1hJywgJzIwMCcsICctaW1hZScsICc8aW5maWxlLm1hZT4nLCAnLW9tYWUnLCAnPG91dGZpbGUubWFlPic=

> <r_lp_tautomer_probability>
1

> <r_epik_Ionization_Penalty>
  0.0048

> <r_epik_Ionization_Penalty_Charging>
  0.0039

> <r_epik_Ionization_Penalty_Neutral>
  0.0009

> <r_epik_State_Penalty>
  0.0000

> <r_epik_Charging_Adjusted_Penalty>
0.0038691425947202

> <i_epik_Tot_Q>
1

> <i_epik_Tot_abs_Q>
1

> <i_f3d_flags>
0

> <s_lp_Force_Field>
OPLS_2005

> <r_lp_Energy>
32.242961

> <b_lp_Chiralities_Consistent>
1

> <s_lp_Variant>
4-Anilinoquinazoline-2

> <s_i_glide_gridfile>
struct_1_site_1

> <i_i_glide_lignum>
121

> <i_i_glide_rotatable_bonds>
6

> <r_i_docking_score>
-7.89938969797782

> <r_i_glide_ligand_efficiency>
-0.263312989932594

> <r_i_glide_ligand_efficiency_sa>
-0.818174680630866

> <r_i_glide_ligand_efficiency_ln>
-1.79482741012504

> <r_i_glide_gscore>
-7.89938969797782

> <r_i_glide_lipo>
-3.41103743859903

> <r_i_glide_hbond>
-0.32

> <r_i_glide_metal>
0

> <r_i_glide_rewards>
-1.60783358358074

> <r_i_glide_evdw>
-42.8285713195801

> <r_i_glide_ecoul>
-5.68204402923584

> <r_i_glide_erotb>
0.533216494566337

> <r_i_glide_esite>
-0.1

> <r_i_glide_emodel>
-55.236327986323

> <r_i_glide_energy>
-48.5106153488159

> <r_i_glide_einternal>
1.82418346405029

> <i_i_glide_confnum>
111

> <i_i_glide_posenum>
46

> <r_i_glide_eff_state_penalty>
0

> <IC50 (nM)>
300

> <PMID>
11881999

> <Temp C>
25

> <r_glide_shape_similarity>
0.825053691864014

> <s_m_subgroup_title>
505 training

> <s_m_subgroupid>
pocket_pv

> <b_m_subgroup_collapsed>
0

$$$$
BindingDB_50095277_mol_1
                    3D
 Schrodinger Suite 2021-2.
 42 44  0  0  1  0            999 V2000
   22.0711   -0.1630   53.4998 C   0  0  0  0  0  0
   23.4342   -0.0918   53.8636 C   0  0  0  0  0  0
   21.2675   -1.1046   54.1774 C   0  0  0  0  0  0
   21.5157    0.6500   52.4944 C   0  0  0  0  0  0
   23.9344   -0.8826   54.8231 N   0  0  0  0  0  0
   19.9052   -1.2047   53.8336 C   0  0  0  0  0  0
   24.2894    0.8479   53.2747 N   0  0  0  0  0  0
   20.1575    0.5277   52.1441 C   0  0  0  0  0  0
   19.3506   -0.3935   52.8214 C   0  0  0  0  0  0
   21.8009   -1.8837   55.1354 N   0  0  0  0  0  0
   23.0910   -1.7198   55.4075 C   0  0  0  0  0  0
   25.6840    0.9474   53.3427 C   0  0  0  0  0  0
   26.5149   -0.1890   53.3339 C   0  0  0  0  0  0
   27.9118   -0.0526   53.3835 C   0  0  0  0  0  0
   19.5166    1.2838   51.1890 O   0  0  0  0  0  0
   18.0511   -0.4481   52.3820 O   0  0  0  0  0  0
   28.6990   -1.1517   53.3778 F   0  0  0  0  0  0
   27.6700    2.3575   53.4229 C   0  0  0  0  0  0
   26.2741    2.2232   53.3699 C   0  0  0  0  0  0
   28.4916    1.2220   53.4364 C   0  0  0  0  0  0
   20.2350    2.1357   50.3191 C   0  0  0  0  0  0
   17.0361   -0.8542   53.2650 C   0  0  0  0  0  0
   20.8373    1.3207   49.1816 C   0  0  0  0  0  0
   15.7213   -0.2610   52.7457 C   0  0  0  0  0  0
   22.1412    1.3563   51.9746 H   0  0  0  0  0  0
   19.2890   -1.9220   54.3541 H   0  0  0  0  0  0
   23.8217    1.6216   52.8325 H   0  0  0  0  0  0
   23.5012   -2.3562   56.1779 H   0  0  0  0  0  0
   26.0879   -1.1800   53.2810 H   0  0  0  0  0  0
   28.1099    3.3443   53.4508 H   0  0  0  0  0  0
   25.6655    3.1160   53.3570 H   0  0  0  0  0  0
   29.5673    1.3264   53.4791 H   0  0  0  0  0  0
   20.9780    2.7415   50.8374 H   0  0  0  0  0  0
   19.5216    2.8479   49.9020 H   0  0  0  0  0  0
   16.9841   -1.9422   53.3035 H   0  0  0  0  0  0
   17.2313   -0.4925   54.2732 H   0  0  0  0  0  0
   21.3287    1.9720   48.4586 H   0  0  0  0  0  0
   20.0650    0.7609   48.6538 H   0  0  0  0  0  0
   21.5757    0.6048   49.5429 H   0  0  0  0  0  0
   14.8859   -0.5470   53.3855 H   0  0  0  0  0  0
   15.7667    0.8263   52.7151 H   0  0  0  0  0  0
   15.5037   -0.6142   51.7357 H   0  0  0  0  0  0
  1  2  2  0  0  0
  1  3  1  0  0  0
  1  4  1  0  0  0
  2  5  1  0  0  0
  2  7  1  0  0  0
  3  6  1  0  0  0
  3 10  2  0  0  0
  4  8  2  0  0  0
  4 25  1  0  0  0
  5 11  2  0  0  0
  6  9  2  0  0  0
  6 26  1  0  0  0
  7 12  1  0  0  0
  7 27  1  0  0  0
  8  9  1  0  0  0
  8 15  1  0  0  0
  9 16  1  0  0  0
 10 11  1  0  0  0
 11 28  1  0  0  0
 12 13  2  0  0  0
 12 19  1  0  0  0
 13 14  1  0  0  0
 13 29  1  0  0  0
 14 17  1  0  0  0
 14 20  2  0  0  0
 15 21  1  0  0  0
 16 22  1  0  0  0
 18 19  2  0  0  0
 18 20  1  0  0  0
 18 30  1  0  0  0
 19 31  1  0  0  0
 20 32  1  0  0  0
 21 23  1  0  0  0
 21 33  1  0  0  0
 21 34  1  0  0  0
 22 24  1  0  0  0
 22 35  1  0  0  0
 22 36  1  0  0  0
 23 37  1  0  0  0
 23 38  1  0  0  0
 23 39  1  0  0  0
 24 40  1  0  0  0
 24 41  1  0  0  0
 24 42  1  0  0  0
M  END
> <s_m_entry_id>
253

> <s_m_entry_name>
pocket_pv.64

> <s_m_Source_Path>
/home/bortolaa/Project/GT/mario-master/docking/set505protein_struct_1_site_1_set505ligs_train

> <s_m_Source_File>
pocket_pv.maegz

> <i_m_Source_File_Index>
64

> <From>
www.bindingDB.org

> <BindingDB Reactant_set_id>
50844869

> <Ligand InChI>
InChI=1S/C18H18FN3O2/c1-3-23-16-9-14-15(10-17(16)24-4-2)20-11-21-18(14)22-13-7-5-6-12(19)8-13/h5-11H,3-4H2,1-2H3,(H,20,21,22)

> <Ligand InChI Key>
VIZJVXABYUPLHN-UHFFFAOYSA-N

> <BindingDB MonomerID>
50095277

> <BindingDB Ligand Name>
(6,7-Diethoxy-quinazolin-4-yl)-(3-fluoro-phenyl)-amine::CHEMBL1204261::CHEMBL294126

> <Target Name Assigned by Curator or DataSource>
Epidermal growth factor receptor

> <Target Source Organism According to Curator or DataSource>
Homo sapiens

> <Ki (nM)>


> <Kd (nM)>


> <EC50 (nM)>


> <kon (M-1-s-1)>


> <koff (s-1)>


> <pH>


> <Temp C>


> <Curation/DataSource>
ChEMBL

> <Article DOI>
10.1021/jm050607w

> <PubChem AID>


> <Patent Number>


> <Authors>
VanBrocklin, HF; Lim, JK; Coffing, SL; Hom, DL; Negash, K; Ono, MY; Gilmore, JL; Bryant, I; Riese, DJ

> <Institution>
Lawrence Berkeley National Laboratory

> <Link to Ligand in BindingDB>
http://www.bindingdb.org/bind/chemsearch/marvin/MolStructure.jsp?monomerid=50095277

> <Link to Ligand-Target Pair in BindingDB>
http://www.bindingdb.org/jsp/dbsearch/PrimarySearch_ki.jsp?energyterm=kJ/mole&tag=r21&monomerid=50095277&enzyme=Epidermal+growth+factor+receptor&column=ki&startPg=0&Increment=50&submit=Search

> <Ligand HET ID in PDB>


> <PDB ID(s) for Ligand-Target Complex>


> <PubChem CID>
11710304

> <PubChem SID>
103993015

> <ChEBI ID of Ligand>


> <ChEMBL ID of Ligand>
CHEMBL1204261
CHEMBL294126

> <DrugBank ID of Ligand>


> <IUPHAR_GRAC ID of Ligand>


> <KEGG ID of Ligand>


> <ZINC ID of Ligand>
ZINC13528690

> <Number of Protein Chains in Target (>
1

> <BindingDB Target Chain Sequence>
MRPSGTAGAALLALLAALCPASRALEEKKVCQGTSNKLTQLGTFEDHFLSLQRMFNNCEVVLGNLEITYVQRNYDLSFLKTIQEVAGYVLIALNTVERIPLENLQIIRGNMYYENSYALAVLSNYDANKTGLKELPMRNLQEILHGAVRFSNNPALCNVESIQWRDIVSSDFLSNMSMDFQNHLGSCQKCDPSCPNGSCWGAGEENCQKLTKIICAQQCSGRCRGKSPSDCCHNQCAAGCTGPRESDCLVCRKFRDEATCKDTCPPLMLYNPTTYQMDVNPEGKYSFGATCVKKCPRNYVVTDHGSCVRACGADSYEMEEDGVRKCKKCEGPCRKVCNGIGIGEFKDSLSINATNIKHFKNCTSISGDLHILPVAFRGDSFTHTPPLDPQELDILKTVKEITGFLLIQAWPENRTDLHAFENLEIIRGRTKQHGQFSLAVVSLNITSLGLRSLKEISDGDVIISGNKNLCYANTINWKKLFGTSGQKTKIISNRGENSCKATGQVCHALCSPEGCWGPEPRDCVSCRNVSRGRECVDKCNLLEGEPREFVENSECIQCHPECLPQAMNITCTGRGPDNCIQCAHYIDGPHCVKTCPAGVMGENNTLVWKYADAGHVCHLCHPNCTYGCTGPGLEGCPTNGPKIPSIATGMVGALLLLLVVALGIGLFMRRRHIVRKRTLRRLLQERELVEPLTPSGEAPNQALLRILKETEFKKIKVLGSGAFGTVYKGLWIPEGEKVKIPVAIKELREATSPKANKEILDEAYVMASVDNPHVCRLLGICLTSTVQLITQLMPFGCLLDYVREHKDNIGSQYLLNWCVQIAKGMNYLEDRRLVHRDLAARNVLVKTPQHVKITDFGLAKLLGAEEKEYHAEGGKVPIKWMALESILHRIYTHQSDVWSYGVTVWELMTFGSKPYDGIPASEISSILEKGERLPQPPICTIDVYMIMVKCWMIDADSRPKFRELIIEFSKMARDPQRYLVIQGDERMHLPSPTDSNFYRALMDEEDMDDVVDADEYLIPQQGFFSSPSTSRTPLLSSLSATSNNSTVACIDRNGLQSCPIKEDSFLQRYSSDPTGALTEDSIDDTFLPVPEYINQSVPKRPAGSVQNPVYHNQPLNPAPSRDPHYQDPHSTAVGNPEYLNTVQPTCVNSTFDSPAHWAQKGSHQISLDNPDYQQDFFPKEAKPNGIFKGSTAENAEYLRVAPQSSEFIGA

> <PDB ID(s) of Target Chain>
1IVO,1M14,1M17,1MOX,1XKK,1Z9I,2GS2,2GS6,2ITW,2ITX,2ITY,2J5E,2J5F,2J6M,2RF9,2RGP,3B2V,3BEL,3GOP,3POZ,3QWQ,3VJO,3W2O,3W2P,3W2Q,3W2R,3W2S,3W32,3W33,4G5J,4I23,4JQ7,4JQ8,4JR3,4JRV,4KRO,4LI5,4RJ4,4RJ5,4RJ6,4RJ7,4RJ8,4TKS,4UIP,4UV7,4WKQ,4WRG,4ZAU,5C8K,5C8M,5C8N,5CAL,5CAN,5CAO,5CAP,5CAQ,5CAS,5CAU,5CAV,5EDP,5EDQ,5EDR,5EM5,5EM6,5EM7,5EM8,5FED,5GNK,5HCX,5HCY,5HCZ,5HIB,5HIC,5UGB,5WB7,5WB8,5Y25,6S89,6S8A

> <UniProt (SwissProt) Recommended Name of Target Chain>
Epidermal growth factor receptor

> <UniProt (SwissProt) Entry Name of Target Chain>
EGFR_HUMAN

> <UniProt (SwissProt) Primary ID of Target Chain>
P00533

> <UniProt (SwissProt) Secondary ID(s) of Target Chain>
O00688,O00732,P06268,Q14225,Q68GS5,Q92795,Q9BZS2,Q9GZX1,Q9H2C9,Q9H3C9,Q9UMD7,Q9UMD8,Q9UMG5

> <UniProt (SwissProt) Alternative ID(s) of Target Chain>


> <UniProt (TrEMBL) Submitted Name of Target Chain>


> <UniProt (TrEMBL) Entry Name of Target Chain>


> <UniProt (TrEMBL) Primary ID of Target Chain>


> <UniProt (TrEMBL) Secondary ID(s) of Target Chain>


> <UniProt (TrEMBL) Alternative ID(s) of Target Chain>


> <training label>
8.08778

> <i_lp_mmshare_version>
54117

> <s_epik_input>
W0NIM11bQ0gyXU9jKFtjSF0xKWMoT1tDSDJdW0NIM10pW2NIXWMoYzEyKW5bY0hdbmMyW05IXWMzW2NIXWMoRilbY0hdW2NIXVtjSF0z

> <s_epik_cmdline>
J2VwaWtfcHl0aG9uJywgJy1waHQnLCAnMC4xJywgJy1waCcsICc3LjQnLCAnLXRuJywgJzgnLCAnLW1hJywgJzIwMCcsICctaW1hZScsICc8aW5maWxlLm1hZT4nLCAnLW9tYWUnLCAnPG91dGZpbGUubWFlPic=

> <r_lp_tautomer_probability>
1

> <r_epik_Ionization_Penalty>
  0.0005

> <r_epik_Ionization_Penalty_Charging>
  0.0000

> <r_epik_Ionization_Penalty_Neutral>
  0.0005

> <r_epik_State_Penalty>
  0.0000

> <r_epik_Charging_Adjusted_Penalty>
0

> <i_epik_Tot_Q>
0

> <i_epik_Tot_abs_Q>
0

> <i_f3d_flags>
0

> <s_lp_Force_Field>
OPLS_2005

> <r_lp_Energy>
20.539252

> <b_lp_Chiralities_Consistent>
1

> <s_lp_Variant>
BindingDB_50095277_mol_1-1

> <s_i_glide_gridfile>
struct_1_site_1

> <i_i_glide_lignum>
239

> <i_i_glide_rotatable_bonds>
6

> <r_i_docking_score>
-7.89735118216327

> <r_i_glide_ligand_efficiency>
-0.329056299256803

> <r_i_glide_ligand_efficiency_sa>
-0.949162611414644

> <r_i_glide_ligand_efficiency_ln>
-1.89019852372404

> <r_i_glide_gscore>
-7.89735118216327

> <r_i_glide_lipo>
-2.77424624547997

> <r_i_glide_hbond>
-0.32

> <r_i_glide_metal>
0

> <r_i_glide_rewards>
-2.79921281258876

> <r_i_glide_evdw>
-38.1419944763184

> <r_i_glide_ecoul>
-5.3154468536377

> <r_i_glide_erotb>
0.700524627767037

> <r_i_glide_esite>
0

> <r_i_glide_emodel>
-47.8683887313137

> <r_i_glide_energy>
-43.4574413299561

> <r_i_glide_einternal>
3.12105298042297

> <i_i_glide_confnum>
17

> <i_i_glide_posenum>
12

> <r_i_glide_eff_state_penalty>
0

> <IC50 (nM)>
8.17

> <PMID>
16279804

> <r_glide_shape_similarity>
0.832220792770386

> <s_m_subgroup_title>
505 training

> <s_m_subgroupid>
pocket_pv

> <b_m_subgroup_collapsed>
0

$$$$
BindingDB_50223089_mol_1
                    3D
 Schrodinger Suite 2021-2.
 48 50  0  0  1  0            999 V2000
   20.1633    0.5225   52.1418 C   0  0  0  0  0  0
   19.3379   -0.3786   52.8318 C   0  0  0  0  0  0
   19.8959   -1.2034   53.8349 C   0  0  0  0  0  0
   21.5173    0.6353   52.5025 C   0  0  0  0  0  0
   22.0593   -0.1855   53.5116 C   0  0  0  0  0  0
   21.2539   -1.1212   54.1810 C   0  0  0  0  0  0
   21.7747   -1.9110   55.1381 N   0  0  0  0  0  0
   23.0629   -1.7673   55.4235 C   0  0  0  0  0  0
   23.9059   -0.9299   54.8576 N   0  0  0  0  0  0
   23.4055   -0.1373   53.9085 C   0  0  0  0  0  0
   24.2362    0.8056   53.3532 N   0  0  0  0  0  0
   25.6106    0.9532   53.3745 C   0  0  0  0  0  0
   25.9834    2.0870   52.6876 C   0  0  0  0  0  0
   27.3098    2.2909   52.3750 C   0  0  0  0  0  0
   28.3182    1.5080   52.9746 C   0  0  0  0  0  0
   27.9475    0.3761   53.7192 C   0  0  0  0  0  0
   26.5856    0.0691   53.8813 C   0  0  0  0  0  0
   27.4888    3.1339   51.2123 C   0  0  0  0  0  0
   27.4888    3.7855   50.1746 C   0  0  0  0  0  0
   19.6005    1.2730   51.1393 O   0  0  0  0  0  0
   20.4034    1.5369   50.0013 C   0  0  0  0  0  0
   18.0173   -0.3891   52.4501 O   0  0  0  0  0  0
   17.1009   -1.1400   53.2154 C   0  0  0  0  0  0
   27.5143    4.5407   48.9068 C   0  0  0  0  0  0
   28.1202    5.9645   48.9485 C   0  0  0  0  0  0
   29.6626    6.0843   48.9129 C   0  0  0  0  0  0
   30.2889    5.9339   50.1745 O   0  0  0  0  0  0
   19.2841   -1.9098   54.3738 H   0  0  0  0  0  0
   22.1387    1.3482   51.9843 H   0  0  0  0  0  0
   23.4696   -2.4264   56.1746 H   0  0  0  0  0  0
   23.7587    1.5045   52.8137 H   0  0  0  0  0  0
   25.2286    2.7175   52.2342 H   0  0  0  0  0  0
   29.3620    1.6811   52.7533 H   0  0  0  0  0  0
   28.7063   -0.2819   54.1169 H   0  0  0  0  0  0
   26.3214   -0.8429   54.3908 H   0  0  0  0  0  0
   19.7659    1.8588   49.1778 H   0  0  0  0  0  0
   21.1180    2.3366   50.1975 H   0  0  0  0  0  0
   20.9432    0.6473   49.6723 H   0  0  0  0  0  0
   16.0892   -0.9538   52.8555 H   0  0  0  0  0  0
   17.2944   -2.2091   53.1210 H   0  0  0  0  0  0
   17.1314   -0.8657   54.2703 H   0  0  0  0  0  0
   26.4740    4.6119   48.5877 H   0  0  0  0  0  0
   28.0189    3.9352   48.1546 H   0  0  0  0  0  0
   27.7053    6.5408   49.7750 H   0  0  0  0  0  0
   27.7569    6.4692   48.0526 H   0  0  0  0  0  0
   29.9260    7.0809   48.5556 H   0  0  0  0  0  0
   30.0937    5.3815   48.1986 H   0  0  0  0  0  0
   29.6026    5.9338   50.8550 H   0  0  0  0  0  0
  1  2  2  0  0  0
  1  4  1  0  0  0
  1 20  1  0  0  0
  2  3  1  0  0  0
  2 22  1  0  0  0
  3  6  2  0  0  0
  3 28  1  0  0  0
  4  5  2  0  0  0
  4 29  1  0  0  0
  5  6  1  0  0  0
  5 10  1  0  0  0
  6  7  1  0  0  0
  7  8  2  0  0  0
  8  9  1  0  0  0
  8 30  1  0  0  0
  9 10  2  0  0  0
 10 11  1  0  0  0
 11 12  1  0  0  0
 11 31  1  0  0  0
 12 13  2  0  0  0
 12 17  1  0  0  0
 13 14  1  0  0  0
 13 32  1  0  0  0
 14 15  2  0  0  0
 14 18  1  0  0  0
 15 16  1  0  0  0
 15 33  1  0  0  0
 16 17  2  0  0  0
 16 34  1  0  0  0
 17 35  1  0  0  0
 18 19  3  0  0  0
 19 24  1  0  0  0
 20 21  1  0  0  0
 21 36  1  0  0  0
 21 37  1  0  0  0
 21 38  1  0  0  0
 22 23  1  0  0  0
 23 39  1  0  0  0
 23 40  1  0  0  0
 23 41  1  0  0  0
 24 25  1  0  0  0
 24 42  1  0  0  0
 24 43  1  0  0  0
 25 26  1  0  0  0
 25 44  1  0  0  0
 25 45  1  0  0  0
 26 27  1  0  0  0
 26 46  1  0  0  0
 26 47  1  0  0  0
 27 48  1  0  0  0
M  END
> <s_m_entry_id>
254

> <s_m_entry_name>
pocket_pv.65

> <s_m_Source_Path>
/home/bortolaa/Project/GT/mario-master/docking/set505protein_struct_1_site_1_set505ligs_train

> <s_m_Source_File>
pocket_pv.maegz

> <i_m_Source_File_Index>
65

> <From>
www.bindingDB.org

> <BindingDB Reactant_set_id>
50401542

> <Ligand InChI>
InChI=1S/C21H21N3O3/c1-26-19-12-17-18(13-20(19)27-2)22-14-23-21(17)24-16-9-6-8-15(11-16)7-4-3-5-10-25/h6,8-9,11-14,25H,3,5,10H2,1-2H3,(H,22,23,24)

> <Ligand InChI Key>
IOCMISOXJROINT-UHFFFAOYSA-N

> <BindingDB MonomerID>
50223089

> <BindingDB Ligand Name>
5-(3-(6,7-dimethoxyquinazolin-4-ylamino)phenyl)pent-4-yn-1-ol::CHEMBL437197

> <Target Name Assigned by Curator or DataSource>
Epidermal growth factor receptor

> <Target Source Organism According to Curator or DataSource>
Homo sapiens

> <Ki (nM)>


> <IC50 (nM)>
1363

> <Kd (nM)>


> <EC50 (nM)>


> <kon (M-1-s-1)>


> <koff (s-1)>


> <pH>


> <Temp C>


> <Curation/DataSource>
ChEMBL

> <Article DOI>
10.1016/j.bmcl.2007.08.061

> <PubChem AID>


> <Patent Number>


> <Authors>
Liu, LT; Yuan, TT; Liu, HH; Chen, SF; Wu, YT

> <Institution>
Development Center for Biotechnology

> <Link to Ligand in BindingDB>
http://www.bindingdb.org/bind/chemsearch/marvin/MolStructure.jsp?monomerid=50223089

> <Link to Ligand-Target Pair in BindingDB>
http://www.bindingdb.org/jsp/dbsearch/PrimarySearch_ki.jsp?energyterm=kJ/mole&tag=r21&monomerid=50223089&enzyme=Epidermal+growth+factor+receptor&column=ki&startPg=0&Increment=50&submit=Search

> <Ligand HET ID in PDB>


> <PDB ID(s) for Ligand-Target Complex>


> <PubChem CID>
44442154

> <PubChem SID>
104095253

> <ChEBI ID of Ligand>


> <ChEMBL ID of Ligand>
CHEMBL437197

> <DrugBank ID of Ligand>


> <IUPHAR_GRAC ID of Ligand>


> <KEGG ID of Ligand>


> <ZINC ID of Ligand>
ZINC28951171

> <Number of Protein Chains in Target (>
1

> <BindingDB Target Chain Sequence>
MRPSGTAGAALLALLAALCPASRALEEKKVCQGTSNKLTQLGTFEDHFLSLQRMFNNCEVVLGNLEITYVQRNYDLSFLKTIQEVAGYVLIALNTVERIPLENLQIIRGNMYYENSYALAVLSNYDANKTGLKELPMRNLQEILHGAVRFSNNPALCNVESIQWRDIVSSDFLSNMSMDFQNHLGSCQKCDPSCPNGSCWGAGEENCQKLTKIICAQQCSGRCRGKSPSDCCHNQCAAGCTGPRESDCLVCRKFRDEATCKDTCPPLMLYNPTTYQMDVNPEGKYSFGATCVKKCPRNYVVTDHGSCVRACGADSYEMEEDGVRKCKKCEGPCRKVCNGIGIGEFKDSLSINATNIKHFKNCTSISGDLHILPVAFRGDSFTHTPPLDPQELDILKTVKEITGFLLIQAWPENRTDLHAFENLEIIRGRTKQHGQFSLAVVSLNITSLGLRSLKEISDGDVIISGNKNLCYANTINWKKLFGTSGQKTKIISNRGENSCKATGQVCHALCSPEGCWGPEPRDCVSCRNVSRGRECVDKCNLLEGEPREFVENSECIQCHPECLPQAMNITCTGRGPDNCIQCAHYIDGPHCVKTCPAGVMGENNTLVWKYADAGHVCHLCHPNCTYGCTGPGLEGCPTNGPKIPSIATGMVGALLLLLVVALGIGLFMRRRHIVRKRTLRRLLQERELVEPLTPSGEAPNQALLRILKETEFKKIKVLGSGAFGTVYKGLWIPEGEKVKIPVAIKELREATSPKANKEILDEAYVMASVDNPHVCRLLGICLTSTVQLITQLMPFGCLLDYVREHKDNIGSQYLLNWCVQIAKGMNYLEDRRLVHRDLAARNVLVKTPQHVKITDFGLAKLLGAEEKEYHAEGGKVPIKWMALESILHRIYTHQSDVWSYGVTVWELMTFGSKPYDGIPASEISSILEKGERLPQPPICTIDVYMIMVKCWMIDADSRPKFRELIIEFSKMARDPQRYLVIQGDERMHLPSPTDSNFYRALMDEEDMDDVVDADEYLIPQQGFFSSPSTSRTPLLSSLSATSNNSTVACIDRNGLQSCPIKEDSFLQRYSSDPTGALTEDSIDDTFLPVPEYINQSVPKRPAGSVQNPVYHNQPLNPAPSRDPHYQDPHSTAVGNPEYLNTVQPTCVNSTFDSPAHWAQKGSHQISLDNPDYQQDFFPKEAKPNGIFKGSTAENAEYLRVAPQSSEFIGA

> <PDB ID(s) of Target Chain>
1IVO,1M14,1M17,1MOX,1XKK,1Z9I,2GS2,2GS6,2ITW,2ITX,2ITY,2J5E,2J5F,2J6M,2RF9,2RGP,3B2V,3BEL,3GOP,3POZ,3QWQ,3VJO,3W2O,3W2P,3W2Q,3W2R,3W2S,3W32,3W33,4G5J,4I23,4JQ7,4JQ8,4JR3,4JRV,4KRO,4LI5,4RJ4,4RJ5,4RJ6,4RJ7,4RJ8,4TKS,4UIP,4UV7,4WKQ,4WRG,4ZAU,5C8K,5C8M,5C8N,5CAL,5CAN,5CAO,5CAP,5CAQ,5CAS,5CAU,5CAV,5EDP,5EDQ,5EDR,5EM5,5EM6,5EM7,5EM8,5FED,5GNK,5HCX,5HCY,5HCZ,5HIB,5HIC,5UGB,5WB7,5WB8,5Y25,6S89,6S8A

> <UniProt (SwissProt) Recommended Name of Target Chain>
Epidermal growth factor receptor

> <UniProt (SwissProt) Entry Name of Target Chain>
EGFR_HUMAN

> <UniProt (SwissProt) Primary ID of Target Chain>
P00533

> <UniProt (SwissProt) Secondary ID(s) of Target Chain>
O00688,O00732,P06268,Q14225,Q68GS5,Q92795,Q9BZS2,Q9GZX1,Q9H2C9,Q9H3C9,Q9UMD7,Q9UMD8,Q9UMG5

> <UniProt (SwissProt) Alternative ID(s) of Target Chain>


> <UniProt (TrEMBL) Submitted Name of Target Chain>


> <UniProt (TrEMBL) Entry Name of Target Chain>


> <UniProt (TrEMBL) Primary ID of Target Chain>


> <UniProt (TrEMBL) Secondary ID(s) of Target Chain>


> <UniProt (TrEMBL) Alternative ID(s) of Target Chain>


> <training label>
5.8655

> <i_lp_mmshare_version>
54117

> <s_epik_input>
W0NIM11PYyhbY0hdMSljKE9bQ0gzXSlbY0hdYyhjMTIpbltjSF1uYzJbTkhdYzNbY0hdYyhbY0hdW2NIXVtjSF0zKUMjQ1tDSDJdW0NIMl1bQ0gyXVtPSF0=

> <s_epik_cmdline>
J2VwaWtfcHl0aG9uJywgJy1waHQnLCAnMC4xJywgJy1waCcsICc3LjQnLCAnLXRuJywgJzgnLCAnLW1hJywgJzIwMCcsICctaW1hZScsICc8aW5maWxlLm1hZT4nLCAnLW9tYWUnLCAnPG91dGZpbGUubWFlPic=

> <r_lp_tautomer_probability>
1

> <r_epik_Ionization_Penalty>
  0.0006

> <r_epik_Ionization_Penalty_Charging>
  0.0000

> <r_epik_Ionization_Penalty_Neutral>
  0.0006

> <r_epik_State_Penalty>
  0.0000

> <r_epik_Charging_Adjusted_Penalty>
0

> <i_epik_Tot_Q>
0

> <i_epik_Tot_abs_Q>
0

> <i_f3d_flags>
0

> <s_lp_Force_Field>
OPLS_2005

> <r_lp_Energy>
21.000706

> <b_lp_Chiralities_Consistent>
1

> <s_lp_Variant>
BindingDB_50223089_mol_1-1

> <s_i_glide_gridfile>
struct_1_site_1

> <i_i_glide_lignum>
61

> <i_i_glide_rotatable_bonds>
9

> <r_i_docking_score>
-7.89575657373548

> <r_i_glide_ligand_efficiency>
-0.29243542865687

> <r_i_glide_ligand_efficiency_sa>
-0.877306285006789

> <r_i_glide_ligand_efficiency_ln>
-1.83800195864503

> <r_i_glide_gscore>
-7.89575657373548

> <r_i_glide_lipo>
-2.45111152050586

> <r_i_glide_hbond>
-0.572393376051075

> <r_i_glide_metal>
0

> <r_i_glide_rewards>
-2.0584465203179

> <r_i_glide_evdw>
-31.9937171936035

> <r_i_glide_ecoul>
-12.1675786972046

> <r_i_glide_erotb>
0.611017507400224

> <r_i_glide_esite>
0

> <r_i_glide_emodel>
-38.6213489708672

> <r_i_glide_energy>
-44.1612958908081

> <r_i_glide_einternal>
5.21844291687012

> <i_i_glide_confnum>
48

> <i_i_glide_posenum>
124

> <r_i_glide_eff_state_penalty>
0

> <PMID>
17889528

> <r_glide_shape_similarity>
0.737928688526154

> <s_m_subgroup_title>
505 training

> <s_m_subgroupid>
pocket_pv

> <b_m_subgroup_collapsed>
0

$$$$
BindingDB_50190000_mol_1
                    3D
 Schrodinger Suite 2021-2.
 52 55  0  0  1  0            999 V2000
   21.8029   -1.9096   55.1441 N   0  0  0  0  0  0
   23.1001   -1.7487   55.4185 C   0  0  0  0  0  0
   23.9353   -0.8802   54.8538 N   0  0  0  0  0  0
   23.4400   -0.0979   53.8706 C   0  0  0  0  0  0
   21.2648   -1.1209   54.1849 C   0  0  0  0  0  0
   22.0729   -0.1720   53.4996 C   0  0  0  0  0  0
   21.5145    0.6414   52.4866 C   0  0  0  0  0  0
   20.1396    0.5350   52.1648 C   0  0  0  0  0  0
   19.3210   -0.4001   52.8413 C   0  0  0  0  0  0
   19.8960   -1.2230   53.8456 C   0  0  0  0  0  0
   17.9830   -0.4208   52.4722 O   0  0  0  0  0  0
   19.4957    1.3323   51.2481 O   0  0  0  0  0  0
   24.2876    0.8525   53.2758 N   0  0  0  0  0  0
   25.6889    0.9454   53.3379 C   0  0  0  0  0  0
   26.5340   -0.2006   53.3093 C   0  0  0  0  0  0
   27.9394   -0.0551   53.3808 C   0  0  0  0  0  0
   28.5100    1.2348   53.4434 C   0  0  0  0  0  0
   27.6750    2.3738   53.4291 C   0  0  0  0  0  0
   26.2717    2.2333   53.3716 C   0  0  0  0  0  0
   28.9715   -1.4515   53.3658 Cl  0  0  0  0  0  0
   26.0204   -1.4482   53.1425 F   0  0  0  0  0  0
   17.0595   -1.1682   53.2548 C   0  0  0  0  0  0
   20.1144    2.5143   50.7352 C   0  0  1  0  0  0
   20.6771    2.1849   49.3403 C   0  0  0  0  0  0
   19.5165    1.7689   48.4140 C   0  0  0  0  0  0
   18.4581    2.8197   48.3114 N   0  3  2  0  0  0
   17.8869    3.1837   49.6398 C   0  0  0  0  0  0
   19.0067    3.5946   50.6286 C   0  0  0  0  0  0
   17.3950    2.4621   47.3319 C   0  0  0  0  0  0
   23.5171   -2.3923   56.1778 H   0  0  0  0  0  0
   22.1481    1.3284   51.9495 H   0  0  0  0  0  0
   19.2955   -1.9388   54.3875 H   0  0  0  0  0  0
   23.8188    1.6252   52.8253 H   0  0  0  0  0  0
   29.5831    1.3554   53.4898 H   0  0  0  0  0  0
   28.1093    3.3633   53.4662 H   0  0  0  0  0  0
   25.6568    3.1212   53.3683 H   0  0  0  0  0  0
   16.0460   -1.0032   52.8877 H   0  0  0  0  0  0
   17.2638   -2.2380   53.1865 H   0  0  0  0  0  0
   17.0897   -0.8645   54.3028 H   0  0  0  0  0  0
   20.8896    2.9155   51.3857 H   0  0  0  0  0  0
   21.4082    1.3767   49.4035 H   0  0  0  0  0  0
   21.1979    3.0492   48.9249 H   0  0  0  0  0  0
   19.0696    0.8562   48.8144 H   0  0  0  0  0  0
   19.8887    1.5362   47.4151 H   0  0  0  0  0  0
   17.3282    2.3384   50.0447 H   0  0  0  0  0  0
   17.1779    4.0050   49.5279 H   0  0  0  0  0  0
   19.4488    4.5375   50.3025 H   0  0  0  0  0  0
   18.5802    3.7849   51.6148 H   0  0  0  0  0  0
   16.8547    1.5681   47.6484 H   0  0  0  0  0  0
   16.6784    3.2782   47.2263 H   0  0  0  0  0  0
   17.8285    2.2694   46.3488 H   0  0  0  0  0  0
   18.9125    3.6582   47.9596 H   0  0  0  0  0  0
  1  2  2  0  0  0
  1  5  1  0  0  0
  2  3  1  0  0  0
  2 30  1  0  0  0
  3  4  2  0  0  0
  4  6  1  0  0  0
  4 13  1  0  0  0
  5  6  1  0  0  0
  5 10  2  0  0  0
  6  7  2  0  0  0
  7  8  1  0  0  0
  7 31  1  0  0  0
  8  9  2  0  0  0
  8 12  1  0  0  0
  9 10  1  0  0  0
  9 11  1  0  0  0
 10 32  1  0  0  0
 11 22  1  0  0  0
 12 23  1  0  0  0
 13 14  1  0  0  0
 13 33  1  0  0  0
 14 15  1  0  0  0
 14 19  2  0  0  0
 15 16  2  0  0  0
 15 21  1  0  0  0
 16 17  1  0  0  0
 16 20  1  0  0  0
 17 18  2  0  0  0
 17 34  1  0  0  0
 18 19  1  0  0  0
 18 35  1  0  0  0
 19 36  1  0  0  0
 22 37  1  0  0  0
 22 38  1  0  0  0
 22 39  1  0  0  0
 23 24  1  0  0  0
 23 28  1  0  0  0
 23 40  1  0  0  0
 24 25  1  0  0  0
 24 41  1  0  0  0
 24 42  1  0  0  0
 25 26  1  0  0  0
 25 43  1  0  0  0
 25 44  1  0  0  0
 26 27  1  0  0  0
 26 29  1  0  0  0
 26 52  1  0  0  0
 27 28  1  0  0  0
 27 45  1  0  0  0
 27 46  1  0  0  0
 28 47  1  0  0  0
 28 48  1  0  0  0
 29 49  1  0  0  0
 29 50  1  0  0  0
 29 51  1  0  0  0
M  CHG  1  26   1
M  END
> <s_m_entry_id>
255

> <s_m_entry_name>
pocket_pv.66

> <s_m_Source_Path>
/home/bortolaa/Project/GT/mario-master/docking/set505protein_struct_1_site_1_set505ligs_train

> <s_m_Source_File>
pocket_pv.maegz

> <i_m_Source_File_Index>
66

> <From>
www.bindingDB.org

> <BindingDB Reactant_set_id>
50351571

> <Ligand InChI>
InChI=1S/C21H22ClFN4O2/c1-27-8-6-13(7-9-27)29-19-10-14-17(11-18(19)28-2)24-12-25-21(14)26-16-5-3-4-15(22)20(16)23/h3-5,10-13H,6-9H2,1-2H3,(H,24,25,26)

> <Ligand InChI Key>
PUGRPTFZBHHZPM-UHFFFAOYSA-N

> <BindingDB MonomerID>
50190000

> <BindingDB Ligand Name>
CHEMBL214798::N-(3-chloro-2-fluorophenyl)-7-methoxy-6-(1-methylpiperidin-4-yloxy)quinazolin-4-amine

> <Target Name Assigned by Curator or DataSource>
Epidermal growth factor receptor

> <Target Source Organism According to Curator or DataSource>
Homo sapiens

> <Ki (nM)>


> <Kd (nM)>


> <EC50 (nM)>


> <kon (M-1-s-1)>


> <koff (s-1)>


> <pH>


> <Temp C>


> <Curation/DataSource>
ChEMBL

> <Article DOI>
10.1016/j.bmcl.2006.06.054

> <PubChem AID>


> <Patent Number>


> <Authors>
Ballard, P; Bradbury, RH; Harris, CS; Hennequin, LF; Hickinson, M; Kettle, JG; Kendrew, J; Klinowska, T; Ogilvie, DJ; Pearson, SE; Williams, EJ; Wilson, I

> <Institution>
AstraZeneca

> <Link to Ligand in BindingDB>
http://www.bindingdb.org/bind/chemsearch/marvin/MolStructure.jsp?monomerid=50190000

> <Link to Ligand-Target Pair in BindingDB>
http://www.bindingdb.org/jsp/dbsearch/PrimarySearch_ki.jsp?energyterm=kJ/mole&tag=r21&monomerid=50190000&enzyme=Epidermal+growth+factor+receptor&column=ki&startPg=0&Increment=50&submit=Search

> <Ligand HET ID in PDB>


> <PDB ID(s) for Ligand-Target Complex>


> <PubChem CID>
10070557

> <PubChem SID>
104073422

> <ChEBI ID of Ligand>


> <ChEMBL ID of Ligand>
CHEMBL214798

> <DrugBank ID of Ligand>


> <IUPHAR_GRAC ID of Ligand>


> <KEGG ID of Ligand>


> <ZINC ID of Ligand>
ZINC34800078

> <Number of Protein Chains in Target (>
1

> <BindingDB Target Chain Sequence>
MRPSGTAGAALLALLAALCPASRALEEKKVCQGTSNKLTQLGTFEDHFLSLQRMFNNCEVVLGNLEITYVQRNYDLSFLKTIQEVAGYVLIALNTVERIPLENLQIIRGNMYYENSYALAVLSNYDANKTGLKELPMRNLQEILHGAVRFSNNPALCNVESIQWRDIVSSDFLSNMSMDFQNHLGSCQKCDPSCPNGSCWGAGEENCQKLTKIICAQQCSGRCRGKSPSDCCHNQCAAGCTGPRESDCLVCRKFRDEATCKDTCPPLMLYNPTTYQMDVNPEGKYSFGATCVKKCPRNYVVTDHGSCVRACGADSYEMEEDGVRKCKKCEGPCRKVCNGIGIGEFKDSLSINATNIKHFKNCTSISGDLHILPVAFRGDSFTHTPPLDPQELDILKTVKEITGFLLIQAWPENRTDLHAFENLEIIRGRTKQHGQFSLAVVSLNITSLGLRSLKEISDGDVIISGNKNLCYANTINWKKLFGTSGQKTKIISNRGENSCKATGQVCHALCSPEGCWGPEPRDCVSCRNVSRGRECVDKCNLLEGEPREFVENSECIQCHPECLPQAMNITCTGRGPDNCIQCAHYIDGPHCVKTCPAGVMGENNTLVWKYADAGHVCHLCHPNCTYGCTGPGLEGCPTNGPKIPSIATGMVGALLLLLVVALGIGLFMRRRHIVRKRTLRRLLQERELVEPLTPSGEAPNQALLRILKETEFKKIKVLGSGAFGTVYKGLWIPEGEKVKIPVAIKELREATSPKANKEILDEAYVMASVDNPHVCRLLGICLTSTVQLITQLMPFGCLLDYVREHKDNIGSQYLLNWCVQIAKGMNYLEDRRLVHRDLAARNVLVKTPQHVKITDFGLAKLLGAEEKEYHAEGGKVPIKWMALESILHRIYTHQSDVWSYGVTVWELMTFGSKPYDGIPASEISSILEKGERLPQPPICTIDVYMIMVKCWMIDADSRPKFRELIIEFSKMARDPQRYLVIQGDERMHLPSPTDSNFYRALMDEEDMDDVVDADEYLIPQQGFFSSPSTSRTPLLSSLSATSNNSTVACIDRNGLQSCPIKEDSFLQRYSSDPTGALTEDSIDDTFLPVPEYINQSVPKRPAGSVQNPVYHNQPLNPAPSRDPHYQDPHSTAVGNPEYLNTVQPTCVNSTFDSPAHWAQKGSHQISLDNPDYQQDFFPKEAKPNGIFKGSTAENAEYLRVAPQSSEFIGA

> <PDB ID(s) of Target Chain>
1IVO,1M14,1M17,1MOX,1XKK,1Z9I,2GS2,2GS6,2ITW,2ITX,2ITY,2J5E,2J5F,2J6M,2RF9,2RGP,3B2V,3BEL,3GOP,3POZ,3QWQ,3VJO,3W2O,3W2P,3W2Q,3W2R,3W2S,3W32,3W33,4G5J,4I23,4JQ7,4JQ8,4JR3,4JRV,4KRO,4LI5,4RJ4,4RJ5,4RJ6,4RJ7,4RJ8,4TKS,4UIP,4UV7,4WKQ,4WRG,4ZAU,5C8K,5C8M,5C8N,5CAL,5CAN,5CAO,5CAP,5CAQ,5CAS,5CAU,5CAV,5EDP,5EDQ,5EDR,5EM5,5EM6,5EM7,5EM8,5FED,5GNK,5HCX,5HCY,5HCZ,5HIB,5HIC,5UGB,5WB7,5WB8,5Y25,6S89,6S8A

> <UniProt (SwissProt) Recommended Name of Target Chain>
Epidermal growth factor receptor

> <UniProt (SwissProt) Entry Name of Target Chain>
EGFR_HUMAN

> <UniProt (SwissProt) Primary ID of Target Chain>
P00533

> <UniProt (SwissProt) Secondary ID(s) of Target Chain>
O00688,O00732,P06268,Q14225,Q68GS5,Q92795,Q9BZS2,Q9GZX1,Q9H2C9,Q9H3C9,Q9UMD7,Q9UMD8,Q9UMG5

> <UniProt (SwissProt) Alternative ID(s) of Target Chain>


> <UniProt (TrEMBL) Submitted Name of Target Chain>


> <UniProt (TrEMBL) Entry Name of Target Chain>


> <UniProt (TrEMBL) Primary ID of Target Chain>


> <UniProt (TrEMBL) Secondary ID(s) of Target Chain>


> <UniProt (TrEMBL) Alternative ID(s) of Target Chain>


> <training label>
8.69897

> <i_lp_mmshare_version>
54117

> <s_epik_input>
W2NIXTFbY0hdW2NIXWMoQ2wpYyhGKWMxW05IXWMobltjSF1uMiljKGMyMylbY0hdYyhjKFtjSF0zKU9bQ0gzXSlPW0NIXTRbQ0gyXVtDSDJdTihbQ0gzXSlbQ0gyXVtDSDJdNA==

> <s_epik_cmdline>
J2VwaWtfcHl0aG9uJywgJy1waHQnLCAnMC4xJywgJy1waCcsICc3LjQnLCAnLXRuJywgJzgnLCAnLW1hJywgJzIwMCcsICctaW1hZScsICc8aW5maWxlLm1hZT4nLCAnLW9tYWUnLCAnPG91dGZpbGUubWFlPic=

> <r_lp_tautomer_probability>
1

> <r_epik_Ionization_Penalty>
  0.0231

> <r_epik_Ionization_Penalty_Charging>
  0.0226

> <r_epik_Ionization_Penalty_Neutral>
  0.0005

> <r_epik_State_Penalty>
  0.0000

> <r_epik_Charging_Adjusted_Penalty>
0.0225555000722947

> <i_epik_Tot_Q>
1

> <i_epik_Tot_abs_Q>
1

> <i_f3d_flags>
0

> <s_lp_Force_Field>
OPLS_2005

> <r_lp_Energy>
32.486917

> <b_lp_Chiralities_Consistent>
1

> <s_lp_Variant>
BindingDB_50190000_mol_1-2

> <s_i_glide_gridfile>
struct_1_site_1

> <i_i_glide_lignum>
273

> <i_i_glide_rotatable_bonds>
5

> <r_i_docking_score>
-7.89508065538554

> <r_i_glide_ligand_efficiency>
-0.272244160530536

> <r_i_glide_ligand_efficiency_sa>
-0.836420314153859

> <r_i_glide_ligand_efficiency_ln>
-1.80777326811177

> <r_i_glide_gscore>
-7.89508065538554

> <r_i_glide_lipo>
-2.94388704841901

> <r_i_glide_hbond>
-0.32

> <r_i_glide_metal>
0

> <r_i_glide_rewards>
-2.09914553975607

> <r_i_glide_evdw>
-40.5596237182617

> <r_i_glide_ecoul>
-6.34718418121338

> <r_i_glide_erotb>
0.452832715659473

> <r_i_glide_esite>
-0.00482196977484209

> <r_i_glide_emodel>
-58.4692392772478

> <r_i_glide_energy>
-46.9068078994751

> <r_i_glide_einternal>
6.17402744293213

> <i_i_glide_confnum>
8

> <i_i_glide_posenum>
2

> <r_i_glide_eff_state_penalty>
0

> <IC50 (nM)>
2

> <PMID>
16806916

> <r_glide_shape_similarity>
0.877544581890106

> <s_m_subgroup_title>
505 training

> <s_m_subgroupid>
pocket_pv

> <b_m_subgroup_collapsed>
0

$$$$
4-Anilinoquinazoline
                    3D
 Schrodinger Suite 2021-2.
 55 58  0  0  1  0            999 V2000
   23.4640   -0.1031   53.8693 C   0  0  0  0  0  0
   23.0926   -1.7533   55.4281 C   0  0  0  0  0  0
   21.2734   -1.1055   54.1834 C   0  0  0  0  0  0
   22.0915   -0.1570   53.4978 C   0  0  0  0  0  0
   21.5430    0.6539   52.4774 C   0  0  0  0  0  0
   20.1733    0.5398   52.1256 C   0  0  0  0  0  0
   19.3474   -0.3711   52.8273 C   0  0  0  0  0  0
   19.9064   -1.2008   53.8369 C   0  0  0  0  0  0
   23.9375   -0.9115   54.8451 N   0  0  0  0  0  0
   21.7982   -1.9004   55.1475 N   0  0  0  0  0  0
   25.8217    0.5024   53.2441 C   0  0  0  0  0  0
   28.1433    1.2766   53.5352 C   0  0  0  0  0  0
   26.7550    1.5563   53.4313 C   0  0  0  0  0  0
   26.3204   -0.8192   53.0801 C   0  0  0  0  0  0
   28.6031   -0.0631   53.4603 C   0  0  0  0  0  0
   26.3139    2.8269   53.5676 F   0  0  0  0  0  0
   24.4215    0.7342   53.2505 N   0  0  0  0  0  0
   24.1004    1.6324   52.9058 H   0  0  0  0  0  0
   18.0192   -0.3674   52.4623 O   0  0  0  0  0  0
   19.5928    1.2907   51.1209 O   0  0  0  0  0  0
   20.4084    1.6755   50.0165 C   0  0  0  0  0  0
   17.1431   -1.3144   53.0455 C   0  0  0  0  0  0
   27.6969   -1.1074   53.2011 C   0  0  0  0  0  0
   30.2636   -0.4650   53.7257 Cl  0  0  0  0  0  0
   15.7182   -0.9996   52.5475 C   0  0  2  0  0  0
   15.5882   -0.9994   51.0019 C   0  0  0  0  0  0
   14.1298   -0.6861   50.5862 C   0  0  0  0  0  0
   15.2095    0.3428   53.1067 C   0  0  0  0  0  0
   13.6180    0.6221   51.2470 C   0  0  0  0  0  0
   13.7872    0.5811   52.7355 N   0  3  2  0  0  0
   13.2170    1.7781   53.4163 C   0  0  0  0  0  0
   23.5063   -2.3995   56.1882 H   0  0  0  0  0  0
   22.1772    1.3585   51.9599 H   0  0  0  0  0  0
   19.3010   -1.9087   54.3812 H   0  0  0  0  0  0
   28.8421    2.0802   53.7199 H   0  0  0  0  0  0
   25.6388   -1.6390   52.9089 H   0  0  0  0  0  0
   19.7790    2.0260   49.1979 H   0  0  0  0  0  0
   21.0791    2.4911   50.2859 H   0  0  0  0  0  0
   20.9987    0.8370   49.6436 H   0  0  0  0  0  0
   17.1632   -1.2494   54.1340 H   0  0  0  0  0  0
   17.4340   -2.3277   52.7632 H   0  0  0  0  0  0
   28.0454   -2.1273   53.1269 H   0  0  0  0  0  0
   15.0698   -1.7850   52.9425 H   0  0  0  0  0  0
   15.8854   -1.9631   50.5907 H   0  0  0  0  0  0
   16.2601   -0.2576   50.5691 H   0  0  0  0  0  0
   13.4862   -1.5146   50.8825 H   0  0  0  0  0  0
   14.0596   -0.6149   49.4998 H   0  0  0  0  0  0
   15.8362    1.1602   52.7542 H   0  0  0  0  0  0
   15.2756    0.3151   54.1809 H   0  0  0  0  0  0
   12.5662    0.7716   50.9903 H   0  0  0  0  0  0
   14.1629    1.4778   50.8424 H   0  0  0  0  0  0
   13.7862    2.6773   53.1718 H   0  0  0  0  0  0
   13.2293    1.6508   54.5004 H   0  0  0  0  0  0
   12.1798    1.9411   53.1146 H   0  0  0  0  0  0
   13.2581   -0.2191   53.0793 H   0  0  0  0  0  0
  1  4  2  0  0  0
  1  9  1  0  0  0
  1 17  1  0  0  0
  2  9  2  0  0  0
  2 10  1  0  0  0
  2 32  1  0  0  0
  3  4  1  0  0  0
  3  8  1  0  0  0
  3 10  2  0  0  0
  4  5  1  0  0  0
  5  6  2  0  0  0
  5 33  1  0  0  0
  6  7  1  0  0  0
  6 20  1  0  0  0
  7  8  2  0  0  0
  7 19  1  0  0  0
  8 34  1  0  0  0
 11 13  2  0  0  0
 11 14  1  0  0  0
 11 17  1  0  0  0
 12 13  1  0  0  0
 12 15  2  0  0  0
 12 35  1  0  0  0
 13 16  1  0  0  0
 14 23  2  0  0  0
 14 36  1  0  0  0
 15 23  1  0  0  0
 15 24  1  0  0  0
 17 18  1  0  0  0
 19 22  1  0  0  0
 20 21  1  0  0  0
 21 37  1  0  0  0
 21 38  1  0  0  0
 21 39  1  0  0  0
 22 25  1  0  0  0
 22 40  1  0  0  0
 22 41  1  0  0  0
 23 42  1  0  0  0
 25 26  1  0  0  0
 25 28  1  0  0  0
 25 43  1  0  0  0
 26 27  1  0  0  0
 26 44  1  0  0  0
 26 45  1  0  0  0
 27 29  1  0  0  0
 27 46  1  0  0  0
 27 47  1  0  0  0
 28 30  1  0  0  0
 28 48  1  0  0  0
 28 49  1  0  0  0
 29 30  1  0  0  0
 29 50  1  0  0  0
 29 51  1  0  0  0
 30 31  1  0  0  0
 30 55  1  0  0  0
 31 52  1  0  0  0
 31 53  1  0  0  0
 31 54  1  0  0  0
M  CHG  1  30   1
M  END
> <s_m_entry_id>
256

> <s_m_entry_name>
pocket_pv.67

> <s_m_Source_Path>
/home/bortolaa/Project/GT/mario-master/docking/set505protein_struct_1_site_1_set505ligs_train

> <s_m_Source_File>
pocket_pv.maegz

> <i_m_Source_File_Index>
67

> <From>
www.bindingDB.org

> <BindingDB Reactant_set_id>
7095

> <Ligand InChI>
InChI=1S/C22H24ClFN4O2/c1-28-7-3-4-14(11-28)12-30-21-10-19-16(9-20(21)29-2)22(26-13-25-19)27-18-6-5-15(23)8-17(18)24/h5-6,8-10,13-14H,3-4,7,11-12H2,1-2H3,(H,25,26,27)/t14-/m1/s1

> <Ligand InChI Key>
OZVUSEVFXCWUBV-CQSZACIVSA-N

> <BindingDB MonomerID>
4682

> <BindingDB Ligand Name>
4-Anilinoquinazoline 29::N-(4-chloro-2-fluorophenyl)-6-methoxy-7-{[(3R)-1-methylpiperidin-3-yl]methoxy}quinazolin-4-amine

> <Target Name Assigned by Curator or DataSource>
Epidermal growth factor receptor

> <Target Source Organism According to Curator or DataSource>
Homo sapiens

> <Ki (nM)>


> <Kd (nM)>


> <EC50 (nM)>


> <kon (M-1-s-1)>


> <koff (s-1)>


> <pH>


> <Curation/DataSource>
Curated from the literature by BindingDB

> <Article DOI>
10.1021/jm011022e

> <PubChem AID>


> <Patent Number>


> <Authors>
Hennequin, LF; Stokes, ES; Thomas, AP; Johnstone, C; Ple, PA; Ogilvie, DJ; Dukes, M; Wedge, SR; Kendrew, J; Curwen, JO

> <Institution>
AstraZeneca

> <Link to Ligand in BindingDB>
http://www.bindingdb.org/bind/chemsearch/marvin/MolStructure.jsp?monomerid=4682

> <Link to Ligand-Target Pair in BindingDB>
http://www.bindingdb.org/jsp/dbsearch/PrimarySearch_ki.jsp?energyterm=kJ/mole&tag=r21&monomerid=4682&enzyme=Epidermal+growth+factor+receptor&column=ki&startPg=0&Increment=50&submit=Search

> <Ligand HET ID in PDB>


> <PDB ID(s) for Ligand-Target Complex>


> <PubChem CID>
5329055

> <PubChem SID>
8034339

> <ChEBI ID of Ligand>


> <ChEMBL ID of Ligand>


> <DrugBank ID of Ligand>


> <IUPHAR_GRAC ID of Ligand>


> <KEGG ID of Ligand>


> <ZINC ID of Ligand>
ZINC13472799

> <Number of Protein Chains in Target (>
1

> <BindingDB Target Chain Sequence>
MRPSGTAGAALLALLAALCPASRALEEKKVCQGTSNKLTQLGTFEDHFLSLQRMFNNCEVVLGNLEITYVQRNYDLSFLKTIQEVAGYVLIALNTVERIPLENLQIIRGNMYYENSYALAVLSNYDANKTGLKELPMRNLQEILHGAVRFSNNPALCNVESIQWRDIVSSDFLSNMSMDFQNHLGSCQKCDPSCPNGSCWGAGEENCQKLTKIICAQQCSGRCRGKSPSDCCHNQCAAGCTGPRESDCLVCRKFRDEATCKDTCPPLMLYNPTTYQMDVNPEGKYSFGATCVKKCPRNYVVTDHGSCVRACGADSYEMEEDGVRKCKKCEGPCRKVCNGIGIGEFKDSLSINATNIKHFKNCTSISGDLHILPVAFRGDSFTHTPPLDPQELDILKTVKEITGFLLIQAWPENRTDLHAFENLEIIRGRTKQHGQFSLAVVSLNITSLGLRSLKEISDGDVIISGNKNLCYANTINWKKLFGTSGQKTKIISNRGENSCKATGQVCHALCSPEGCWGPEPRDCVSCRNVSRGRECVDKCNLLEGEPREFVENSECIQCHPECLPQAMNITCTGRGPDNCIQCAHYIDGPHCVKTCPAGVMGENNTLVWKYADAGHVCHLCHPNCTYGCTGPGLEGCPTNGPKIPSIATGMVGALLLLLVVALGIGLFMRRRHIVRKRTLRRLLQERELVEPLTPSGEAPNQALLRILKETEFKKIKVLGSGAFGTVYKGLWIPEGEKVKIPVAIKELREATSPKANKEILDEAYVMASVDNPHVCRLLGICLTSTVQLITQLMPFGCLLDYVREHKDNIGSQYLLNWCVQIAKGMNYLEDRRLVHRDLAARNVLVKTPQHVKITDFGLAKLLGAEEKEYHAEGGKVPIKWMALESILHRIYTHQSDVWSYGVTVWELMTFGSKPYDGIPASEISSILEKGERLPQPPICTIDVYMIMVKCWMIDADSRPKFRELIIEFSKMARDPQRYLVIQGDERMHLPSPTDSNFYRALMDEEDMDDVVDADEYLIPQQGFFSSPSTSRTPLLSSLSATSNNSTVACIDRNGLQSCPIKEDSFLQRYSSDPTGALTEDSIDDTFLPVPEYINQSVPKRPAGSVQNPVYHNQPLNPAPSRDPHYQDPHSTAVGNPEYLNTVQPTCVNSTFDSPAHWAQKGSHQISLDNPDYQQDFFPKEAKPNGIFKGSTAENAEYLRVAPQSSEFIGA

> <PDB ID(s) of Target Chain>
1IVO,1M14,1M17,1MOX,1XKK,1Z9I,2GS2,2GS6,2ITW,2ITX,2ITY,2J5E,2J5F,2J6M,2RF9,2RGP,3B2V,3BEL,3GOP,3POZ,3QWQ,3VJO,3W2O,3W2P,3W2Q,3W2R,3W2S,3W32,3W33,4G5J,4I23,4JQ7,4JQ8,4JR3,4JRV,4KRO,4LI5,4RJ4,4RJ5,4RJ6,4RJ7,4RJ8,4TKS,4UIP,4UV7,4WKQ,4WRG,4ZAU,5C8K,5C8M,5C8N,5CAL,5CAN,5CAO,5CAP,5CAQ,5CAS,5CAU,5CAV,5EDP,5EDQ,5EDR,5EM5,5EM6,5EM7,5EM8,5FED,5GNK,5HCX,5HCY,5HCZ,5HIB,5HIC,5UGB,5WB7,5WB8,5Y25,6S89,6S8A

> <UniProt (SwissProt) Recommended Name of Target Chain>
Epidermal growth factor receptor

> <UniProt (SwissProt) Entry Name of Target Chain>
EGFR_HUMAN

> <UniProt (SwissProt) Primary ID of Target Chain>
P00533

> <UniProt (SwissProt) Secondary ID(s) of Target Chain>
O00688,O00732,P06268,Q14225,Q68GS5,Q92795,Q9BZS2,Q9GZX1,Q9H2C9,Q9H3C9,Q9UMD7,Q9UMD8,Q9UMG5

> <UniProt (SwissProt) Alternative ID(s) of Target Chain>


> <UniProt (TrEMBL) Submitted Name of Target Chain>


> <UniProt (TrEMBL) Entry Name of Target Chain>


> <UniProt (TrEMBL) Primary ID of Target Chain>


> <UniProt (TrEMBL) Secondary ID(s) of Target Chain>


> <UniProt (TrEMBL) Alternative ID(s) of Target Chain>


> <training label>
7

> <i_lp_mmshare_version>
54117

> <s_epik_input>
W2NIXTFbY0hdYyhDbClbY0hdYyhGKWMxW05IXWMobltjSF1uMiljKGMyMylbY0hdYyhPW0NIM10pYyhbY0hdMylPW0NIMl1bQ0BASF00W0NIMl1bQ0gyXVtDSDJdTihbQ0gyXTQpW0NIM10=

> <s_epik_cmdline>
J2VwaWtfcHl0aG9uJywgJy1waHQnLCAnMC4xJywgJy1waCcsICc3LjQnLCAnLXRuJywgJzgnLCAnLW1hJywgJzIwMCcsICctaW1hZScsICc8aW5maWxlLm1hZT4nLCAnLW9tYWUnLCAnPG91dGZpbGUubWFlPic=

> <r_lp_tautomer_probability>
1

> <r_epik_Ionization_Penalty>
  0.0065

> <r_epik_Ionization_Penalty_Charging>
  0.0059

> <r_epik_Ionization_Penalty_Neutral>
  0.0006

> <r_epik_State_Penalty>
  0.0000

> <r_epik_Charging_Adjusted_Penalty>
0.00586086653697188

> <i_epik_Tot_Q>
1

> <i_epik_Tot_abs_Q>
1

> <i_f3d_flags>
0

> <s_lp_Force_Field>
OPLS_2005

> <r_lp_Energy>
34.355174

> <b_lp_Chiralities_Consistent>
1

> <s_lp_Variant>
4-Anilinoquinazoline-1

> <s_i_glide_gridfile>
struct_1_site_1

> <i_i_glide_lignum>
158

> <i_i_glide_rotatable_bonds>
6

> <r_i_docking_score>
-7.89295785055587

> <r_i_glide_ligand_efficiency>
-0.263098595018529

> <r_i_glide_ligand_efficiency_sa>
-0.817508505785527

> <r_i_glide_ligand_efficiency_ln>
-1.79336602431019

> <r_i_glide_gscore>
-7.89295785055587

> <r_i_glide_lipo>
-3.46431565276035

> <r_i_glide_hbond>
-0.32

> <r_i_glide_metal>
0

> <r_i_glide_rewards>
-1.60143482227518

> <r_i_glide_evdw>
-43.0204200744629

> <r_i_glide_ecoul>
-5.26268577575684

> <r_i_glide_erotb>
0.533216494566337

> <r_i_glide_esite>
-0.1

> <r_i_glide_emodel>
-54.2847512415456

> <r_i_glide_energy>
-48.2831058502197

> <r_i_glide_einternal>
2.96396827697754

> <i_i_glide_confnum>
91

> <i_i_glide_posenum>
266

> <r_i_glide_eff_state_penalty>
0

> <IC50 (nM)>
100

> <PMID>
11881999

> <Temp C>
25

> <r_glide_shape_similarity>
0.81667160987854

> <s_m_subgroup_title>
505 training

> <s_m_subgroupid>
pocket_pv

> <b_m_subgroup_collapsed>
0

$$$$
BindingDB_50102078_mol_1
                    3D
 Schrodinger Suite 2021-2.
 56 58  0  0  1  0            999 V2000
   22.0718   -0.1706   53.5023 C   0  0  0  0  0  0
   23.4379   -0.0967   53.8702 C   0  0  0  0  0  0
   21.2633   -1.1180   54.1849 C   0  0  0  0  0  0
   21.5192    0.6316   52.4809 C   0  0  0  0  0  0
   23.9414   -0.8944   54.8342 N   0  0  0  0  0  0
   19.8934   -1.2070   53.8401 C   0  0  0  0  0  0
   24.2865    0.8525   53.2733 N   0  0  0  0  0  0
   20.1528    0.5224   52.1182 C   0  0  0  0  0  0
   19.3236   -0.3855   52.8251 C   0  0  0  0  0  0
   27.9104   -0.0720   53.3881 C   0  0  0  0  0  0
   21.8008   -1.9039   55.1474 N   0  0  0  0  0  0
   26.5090   -0.1996   53.3296 C   0  0  0  0  0  0
   23.0984   -1.7453   55.4179 C   0  0  0  0  0  0
   25.6830    0.9501   53.3404 C   0  0  0  0  0  0
   28.4917    1.2120   53.4583 C   0  0  0  0  0  0
   27.6752    2.3641   53.4311 C   0  0  0  0  0  0
   28.9070   -1.4882   53.3766 Cl  0  0  0  0  0  0
   26.2741    2.2329   53.3705 C   0  0  0  0  0  0
   29.8330    1.3237   53.5774 F   0  0  0  0  0  0
   24.8917    5.8162   50.9742 N   0  3  0  0  0  0
   17.9897   -0.4073   52.4493 O   0  0  0  0  0  0
   19.5794    1.2601   51.0875 O   0  0  0  0  0  0
   21.9656    4.0859   50.4873 N   0  0  2  0  0  0
   23.4333    6.1340   50.7952 C   0  0  0  0  0  0
   22.4222    5.1282   51.4295 C   0  0  0  0  0  0
   20.7674    3.4123   51.0125 C   0  0  0  0  0  0
   25.3000    4.4918   50.4272 C   0  0  0  0  0  0
   25.7486    6.9145   50.4392 C   0  0  0  0  0  0
   20.4028    2.0962   50.2618 C   0  0  0  0  0  0
   17.0630   -1.1419   53.2354 C   0  0  0  0  0  0
   22.1645    1.3157   51.9580 H   0  0  0  0  0  0
   19.2820   -1.9093   54.3834 H   0  0  0  0  0  0
   23.8187    1.6240   52.8246 H   0  0  0  0  0  0
   26.0730   -1.1845   53.2707 H   0  0  0  0  0  0
   23.5159   -2.3932   56.1744 H   0  0  0  0  0  0
   28.1210    3.3476   53.4800 H   0  0  0  0  0  0
   25.6623    3.1225   53.3706 H   0  0  0  0  0  0
   22.7036    3.4242   50.2747 H   0  0  0  0  0  0
   23.2628    7.1040   51.2659 H   0  0  0  0  0  0
   23.2079    6.2768   49.7382 H   0  0  0  0  0  0
   22.8159    4.6815   52.3426 H   0  0  0  0  0  0
   21.5441    5.7039   51.7253 H   0  0  0  0  0  0
   20.9466    3.1926   52.0632 H   0  0  0  0  0  0
   19.9192    4.0984   50.9935 H   0  0  0  0  0  0
   25.1187    4.4366   49.3537 H   0  0  0  0  0  0
   24.7526    3.6846   50.9124 H   0  0  0  0  0  0
   26.3624    4.3183   50.6067 H   0  0  0  0  0  0
   25.5684    7.0651   49.3755 H   0  0  0  0  0  0
   25.5420    7.8484   50.9628 H   0  0  0  0  0  0
   26.8066    6.6947   50.5705 H   0  0  0  0  0  0
   19.8535    2.3382   49.3507 H   0  0  0  0  0  0
   21.2897    1.5499   49.9362 H   0  0  0  0  0  0
   16.0514   -0.9660   52.8660 H   0  0  0  0  0  0
   17.2574   -2.2155   53.1793 H   0  0  0  0  0  0
   17.0910   -0.8383   54.2842 H   0  0  0  0  0  0
   25.1215    5.7928   51.9742 H   0  0  0  0  0  0
  1  2  2  0  0  0
  1  3  1  0  0  0
  1  4  1  0  0  0
  2  5  1  0  0  0
  2  7  1  0  0  0
  3  6  1  0  0  0
  3 11  2  0  0  0
  4  8  2  0  0  0
  4 31  1  0  0  0
  5 13  2  0  0  0
  6  9  2  0  0  0
  6 32  1  0  0  0
  7 14  1  0  0  0
  7 33  1  0  0  0
  8  9  1  0  0  0
  8 22  1  0  0  0
  9 21  1  0  0  0
 10 12  2  0  0  0
 10 15  1  0  0  0
 10 17  1  0  0  0
 11 13  1  0  0  0
 12 14  1  0  0  0
 12 34  1  0  0  0
 13 35  1  0  0  0
 14 18  2  0  0  0
 15 16  2  0  0  0
 15 19  1  0  0  0
 16 18  1  0  0  0
 16 36  1  0  0  0
 18 37  1  0  0  0
 20 24  1  0  0  0
 20 27  1  0  0  0
 20 28  1  0  0  0
 20 56  1  0  0  0
 21 30  1  0  0  0
 22 29  1  0  0  0
 23 25  1  0  0  0
 23 26  1  0  0  0
 23 38  1  0  0  0
 24 25  1  0  0  0
 24 39  1  0  0  0
 24 40  1  0  0  0
 25 41  1  0  0  0
 25 42  1  0  0  0
 26 29  1  0  0  0
 26 43  1  0  0  0
 26 44  1  0  0  0
 27 45  1  0  0  0
 27 46  1  0  0  0
 27 47  1  0  0  0
 28 48  1  0  0  0
 28 49  1  0  0  0
 28 50  1  0  0  0
 29 51  1  0  0  0
 29 52  1  0  0  0
 30 53  1  0  0  0
 30 54  1  0  0  0
 30 55  1  0  0  0
M  CHG  1  20   1
M  END
> <s_m_entry_id>
257

> <s_m_entry_name>
pocket_pv.68

> <s_m_Source_Path>
/home/bortolaa/Project/GT/mario-master/docking/set505protein_struct_1_site_1_set505ligs_train

> <s_m_Source_File>
pocket_pv.maegz

> <i_m_Source_File_Index>
68

> <From>
www.bindingDB.org

> <BindingDB Reactant_set_id>
50733032

> <Ligand InChI>
InChI=1S/C21H25ClFN5O2/c1-28(2)8-6-24-7-9-30-20-11-15-18(12-19(20)29-3)25-13-26-21(15)27-14-4-5-17(23)16(22)10-14/h4-5,10-13,24H,6-9H2,1-3H3,(H,25,26,27)

> <Ligand InChI Key>
NGFCHICVVRPPGH-UHFFFAOYSA-N

> <BindingDB MonomerID>
50102078

> <BindingDB Ligand Name>
CHEMBL56936::N-{2-[4-(3-Chloro-4-fluoro-phenylamino)-7-methoxy-quinazolin-6-yloxy]-ethyl}-N',N'-dimethyl-ethane-1,2-diamine

> <Target Name Assigned by Curator or DataSource>
Epidermal growth factor receptor

> <Target Source Organism According to Curator or DataSource>
Homo sapiens

> <Ki (nM)>


> <Kd (nM)>


> <EC50 (nM)>


> <kon (M-1-s-1)>


> <koff (s-1)>


> <pH>


> <Temp C>


> <Curation/DataSource>
ChEMBL

> <Article DOI>
10.1016/s0960-894x(01)00344-4

> <PubChem AID>


> <Patent Number>


> <Authors>
Barker, AJ; Gibson, KH; Grundy, W; Godfrey, AA; Barlow, JJ; Healy, MP; Woodburn, JR; Ashton, SE; Curry, BJ; Scarlett, L; Henthorn, L; Richards, L

> <Institution>
AstraZeneca

> <Link to Ligand in BindingDB>
http://www.bindingdb.org/bind/chemsearch/marvin/MolStructure.jsp?monomerid=50102078

> <Link to Ligand-Target Pair in BindingDB>
http://www.bindingdb.org/jsp/dbsearch/PrimarySearch_ki.jsp?energyterm=kJ/mole&tag=r21&monomerid=50102078&enzyme=Epidermal+growth+factor+receptor&column=ki&startPg=0&Increment=50&submit=Search

> <Ligand HET ID in PDB>


> <PDB ID(s) for Ligand-Target Complex>


> <PubChem CID>
44300005

> <PubChem SID>
103998635

> <ChEBI ID of Ligand>


> <ChEMBL ID of Ligand>
CHEMBL56936

> <DrugBank ID of Ligand>


> <IUPHAR_GRAC ID of Ligand>


> <KEGG ID of Ligand>


> <ZINC ID of Ligand>
ZINC29554694

> <Number of Protein Chains in Target (>
1

> <BindingDB Target Chain Sequence>
MRPSGTAGAALLALLAALCPASRALEEKKVCQGTSNKLTQLGTFEDHFLSLQRMFNNCEVVLGNLEITYVQRNYDLSFLKTIQEVAGYVLIALNTVERIPLENLQIIRGNMYYENSYALAVLSNYDANKTGLKELPMRNLQEILHGAVRFSNNPALCNVESIQWRDIVSSDFLSNMSMDFQNHLGSCQKCDPSCPNGSCWGAGEENCQKLTKIICAQQCSGRCRGKSPSDCCHNQCAAGCTGPRESDCLVCRKFRDEATCKDTCPPLMLYNPTTYQMDVNPEGKYSFGATCVKKCPRNYVVTDHGSCVRACGADSYEMEEDGVRKCKKCEGPCRKVCNGIGIGEFKDSLSINATNIKHFKNCTSISGDLHILPVAFRGDSFTHTPPLDPQELDILKTVKEITGFLLIQAWPENRTDLHAFENLEIIRGRTKQHGQFSLAVVSLNITSLGLRSLKEISDGDVIISGNKNLCYANTINWKKLFGTSGQKTKIISNRGENSCKATGQVCHALCSPEGCWGPEPRDCVSCRNVSRGRECVDKCNLLEGEPREFVENSECIQCHPECLPQAMNITCTGRGPDNCIQCAHYIDGPHCVKTCPAGVMGENNTLVWKYADAGHVCHLCHPNCTYGCTGPGLEGCPTNGPKIPSIATGMVGALLLLLVVALGIGLFMRRRHIVRKRTLRRLLQERELVEPLTPSGEAPNQALLRILKETEFKKIKVLGSGAFGTVYKGLWIPEGEKVKIPVAIKELREATSPKANKEILDEAYVMASVDNPHVCRLLGICLTSTVQLITQLMPFGCLLDYVREHKDNIGSQYLLNWCVQIAKGMNYLEDRRLVHRDLAARNVLVKTPQHVKITDFGLAKLLGAEEKEYHAEGGKVPIKWMALESILHRIYTHQSDVWSYGVTVWELMTFGSKPYDGIPASEISSILEKGERLPQPPICTIDVYMIMVKCWMIDADSRPKFRELIIEFSKMARDPQRYLVIQGDERMHLPSPTDSNFYRALMDEEDMDDVVDADEYLIPQQGFFSSPSTSRTPLLSSLSATSNNSTVACIDRNGLQSCPIKEDSFLQRYSSDPTGALTEDSIDDTFLPVPEYINQSVPKRPAGSVQNPVYHNQPLNPAPSRDPHYQDPHSTAVGNPEYLNTVQPTCVNSTFDSPAHWAQKGSHQISLDNPDYQQDFFPKEAKPNGIFKGSTAENAEYLRVAPQSSEFIGA

> <PDB ID(s) of Target Chain>
1IVO,1M14,1M17,1MOX,1XKK,1Z9I,2GS2,2GS6,2ITW,2ITX,2ITY,2J5E,2J5F,2J6M,2RF9,2RGP,3B2V,3BEL,3GOP,3POZ,3QWQ,3VJO,3W2O,3W2P,3W2Q,3W2R,3W2S,3W32,3W33,4G5J,4I23,4JQ7,4JQ8,4JR3,4JRV,4KRO,4LI5,4RJ4,4RJ5,4RJ6,4RJ7,4RJ8,4TKS,4UIP,4UV7,4WKQ,4WRG,4ZAU,5C8K,5C8M,5C8N,5CAL,5CAN,5CAO,5CAP,5CAQ,5CAS,5CAU,5CAV,5EDP,5EDQ,5EDR,5EM5,5EM6,5EM7,5EM8,5FED,5GNK,5HCX,5HCY,5HCZ,5HIB,5HIC,5UGB,5WB7,5WB8,5Y25,6S89,6S8A

> <UniProt (SwissProt) Recommended Name of Target Chain>
Epidermal growth factor receptor

> <UniProt (SwissProt) Entry Name of Target Chain>
EGFR_HUMAN

> <UniProt (SwissProt) Primary ID of Target Chain>
P00533

> <UniProt (SwissProt) Secondary ID(s) of Target Chain>
O00688,O00732,P06268,Q14225,Q68GS5,Q92795,Q9BZS2,Q9GZX1,Q9H2C9,Q9H3C9,Q9UMD7,Q9UMD8,Q9UMG5

> <UniProt (SwissProt) Alternative ID(s) of Target Chain>


> <UniProt (TrEMBL) Submitted Name of Target Chain>


> <UniProt (TrEMBL) Entry Name of Target Chain>


> <UniProt (TrEMBL) Primary ID of Target Chain>


> <UniProt (TrEMBL) Secondary ID(s) of Target Chain>


> <UniProt (TrEMBL) Alternative ID(s) of Target Chain>


> <training label>
8.69897

> <i_lp_mmshare_version>
54117

> <s_epik_input>
RmMxW2NIXVtjSF1jKFtjSF1jMUNsKVtOSF1jMm5bY0hdbmMoYzIzKVtjSF1jKE9bQ0gzXSljKFtjSF0zKU9bQ0gyXVtDSDJdW05IXVtDSDJdW0NIMl1OKFtDSDNdKVtDSDNd

> <s_epik_cmdline>
J2VwaWtfcHl0aG9uJywgJy1waHQnLCAnMC4xJywgJy1waCcsICc3LjQnLCAnLXRuJywgJzgnLCAnLW1hJywgJzIwMCcsICctaW1hZScsICc8aW5maWxlLm1hZT4nLCAnLW9tYWUnLCAnPG91dGZpbGUubWFlPic=

> <r_lp_tautomer_probability>
1

> <r_epik_Ionization_Penalty>
  0.0661

> <r_epik_Ionization_Penalty_Charging>
  0.0240

> <r_epik_Ionization_Penalty_Neutral>
  0.0421

> <r_epik_State_Penalty>
  0.0000

> <r_epik_Charging_Adjusted_Penalty>
0.0240099304686333

> <i_epik_Tot_Q>
1

> <i_epik_Tot_abs_Q>
1

> <i_f3d_flags>
0

> <s_lp_Force_Field>
OPLS_2005

> <r_lp_Energy>
28.564641

> <b_lp_Chiralities_Consistent>
1

> <s_lp_Variant>
BindingDB_50102078_mol_1-1

> <s_i_glide_gridfile>
struct_1_site_1

> <i_i_glide_lignum>
270

> <i_i_glide_rotatable_bonds>
10

> <r_i_docking_score>
-7.8788445214037

> <r_i_glide_ligand_efficiency>
-0.262628150713457

> <r_i_glide_ligand_efficiency_sa>
-0.816046725950223

> <r_i_glide_ligand_efficiency_ln>
-1.79015932214978

> <r_i_glide_gscore>
-7.8788445214037

> <r_i_glide_lipo>
-2.91788492090885

> <r_i_glide_hbond>
-0.487711670850136

> <r_i_glide_metal>
0

> <r_i_glide_rewards>
-1.59304533313334

> <r_i_glide_evdw>
-44.5270347595215

> <r_i_glide_ecoul>
-8.86635780334473

> <r_i_glide_erotb>
0.842495782982494

> <r_i_glide_esite>
-0.166392971016079

> <r_i_glide_emodel>
-61.9066630477562

> <r_i_glide_energy>
-53.3933925628662

> <r_i_glide_einternal>
3.81932783126831

> <i_i_glide_confnum>
218

> <i_i_glide_posenum>
312

> <r_i_glide_eff_state_penalty>
0

> <IC50 (nM)>
2

> <PMID>
11459659

> <r_glide_shape_similarity>
0.775479555130005

> <s_m_subgroup_title>
505 training

> <s_m_subgroupid>
pocket_pv

> <b_m_subgroup_collapsed>
0

$$$$
BindingDB_50188464_mol_1
                    3D
 Schrodinger Suite 2021-2.
 36 38  0  0  1  0            999 V2000
   20.1530    0.5159   52.1535 C   0  0  0  0  0  0
   19.3452   -0.4036   52.8421 C   0  0  0  0  0  0
   19.9115   -1.2123   53.8407 C   0  0  0  0  0  0
   21.5106    0.6432   52.5013 C   0  0  0  0  0  0
   22.0736   -0.1692   53.5041 C   0  0  0  0  0  0
   21.2724   -1.1126   54.1826 C   0  0  0  0  0  0
   21.8022   -1.8932   55.1398 N   0  0  0  0  0  0
   23.0929   -1.7356   55.4095 C   0  0  0  0  0  0
   23.9356   -0.8988   54.8219 N   0  0  0  0  0  0
   23.4375   -0.0975   53.8662 C   0  0  0  0  0  0
   24.2890    0.8484   53.2768 N   0  0  0  0  0  0
   25.6840    0.9471   53.3450 C   0  0  0  0  0  0
   26.5136   -0.1907   53.3356 C   0  0  0  0  0  0
   27.9119   -0.0579   53.3733 C   0  0  0  0  0  0
   28.4907    1.2195   53.4341 C   0  0  0  0  0  0
   27.6698    2.3568   53.4231 C   0  0  0  0  0  0
   26.2733    2.2225   53.3694 C   0  0  0  0  0  0
   19.5800    1.2781   51.1383 N   0  0  0  0  0  0
   28.7917   -1.2838   53.3173 C   0  0  0  0  0  0
   20.3801    1.5759   49.9612 C   0  0  0  0  0  0
   18.2973   -0.5079   52.6007 H   0  0  0  0  0  0
   19.2856   -1.9176   54.3701 H   0  0  0  0  0  0
   22.1216    1.3618   51.9753 H   0  0  0  0  0  0
   23.5055   -2.3786   56.1723 H   0  0  0  0  0  0
   23.8239    1.6195   52.8336 H   0  0  0  0  0  0
   26.0780   -1.1782   53.2811 H   0  0  0  0  0  0
   29.5653    1.3323   53.4675 H   0  0  0  0  0  0
   28.1073    3.3446   53.4522 H   0  0  0  0  0  0
   25.6642    3.1133   53.3533 H   0  0  0  0  0  0
   18.6070    1.0966   50.9536 H   0  0  0  0  0  0
   29.6346   -1.1202   52.6426 H   0  0  0  0  0  0
   28.2417   -2.1566   52.9600 H   0  0  0  0  0  0
   29.1893   -1.5066   54.3078 H   0  0  0  0  0  0
   19.7298    1.8216   49.1263 H   0  0  0  0  0  0
   21.0324    2.4346   50.1475 H   0  0  0  0  0  0
   20.9966    0.7214   49.6690 H   0  0  0  0  0  0
  1  2  2  0  0  0
  1  4  1  0  0  0
  1 18  1  0  0  0
  2  3  1  0  0  0
  2 21  1  0  0  0
  3  6  2  0  0  0
  3 22  1  0  0  0
  4  5  2  0  0  0
  4 23  1  0  0  0
  5  6  1  0  0  0
  5 10  1  0  0  0
  6  7  1  0  0  0
  7  8  2  0  0  0
  8  9  1  0  0  0
  8 24  1  0  0  0
  9 10  2  0  0  0
 10 11  1  0  0  0
 11 12  1  0  0  0
 11 25  1  0  0  0
 12 13  2  0  0  0
 12 17  1  0  0  0
 13 14  1  0  0  0
 13 26  1  0  0  0
 14 15  2  0  0  0
 14 19  1  0  0  0
 15 16  1  0  0  0
 15 27  1  0  0  0
 16 17  2  0  0  0
 16 28  1  0  0  0
 17 29  1  0  0  0
 18 20  1  0  0  0
 18 30  1  0  0  0
 19 31  1  0  0  0
 19 32  1  0  0  0
 19 33  1  0  0  0
 20 34  1  0  0  0
 20 35  1  0  0  0
 20 36  1  0  0  0
M  END
> <s_m_entry_id>
258

> <s_m_entry_name>
pocket_pv.69

> <s_m_Source_Path>
/home/bortolaa/Project/GT/mario-master/docking/set505protein_struct_1_site_1_set505ligs_train

> <s_m_Source_File>
pocket_pv.maegz

> <i_m_Source_File_Index>
69

> <From>
www.bindingDB.org

> <BindingDB Reactant_set_id>
50348873

> <Ligand InChI>
InChI=1S/C16H16N4/c1-11-4-3-5-13(8-11)20-16-14-9-12(17-2)6-7-15(14)18-10-19-16/h3-10,17H,1-2H3,(H,18,19,20)

> <Ligand InChI Key>
IWBVCRRXSCJLQC-UHFFFAOYSA-N

> <BindingDB MonomerID>
50188464

> <BindingDB Ligand Name>
4-[(3-methylphenyl)amino]-6-(methylamino)quinazoline::CHEMBL208594

> <Target Name Assigned by Curator or DataSource>
Epidermal growth factor receptor

> <Target Source Organism According to Curator or DataSource>
Homo sapiens

> <Ki (nM)>


> <Kd (nM)>


> <EC50 (nM)>


> <kon (M-1-s-1)>


> <koff (s-1)>


> <pH>


> <Temp C>


> <Curation/DataSource>
ChEMBL

> <Article DOI>
10.1021/jm0600390

> <PubChem AID>


> <Patent Number>


> <Authors>
Domarkas, J; Dudouit, F; Williams, C; Qiyu, Q; Banerjee, R; Brahimi, F; Jean-Claude, BJ

> <Institution>
McGill University Health Center/ Royal Victoria Hospital

> <Link to Ligand in BindingDB>
http://www.bindingdb.org/bind/chemsearch/marvin/MolStructure.jsp?monomerid=50188464

> <Link to Ligand-Target Pair in BindingDB>
http://www.bindingdb.org/jsp/dbsearch/PrimarySearch_ki.jsp?energyterm=kJ/mole&tag=r21&monomerid=50188464&enzyme=Epidermal+growth+factor+receptor&column=ki&startPg=0&Increment=50&submit=Search

> <Ligand HET ID in PDB>


> <PDB ID(s) for Ligand-Target Complex>


> <PubChem CID>
10106867

> <PubChem SID>
104072257

> <ChEBI ID of Ligand>


> <ChEMBL ID of Ligand>
CHEMBL208594

> <DrugBank ID of Ligand>


> <IUPHAR_GRAC ID of Ligand>


> <KEGG ID of Ligand>


> <ZINC ID of Ligand>
ZINC34219587

> <Number of Protein Chains in Target (>
1

> <BindingDB Target Chain Sequence>
MRPSGTAGAALLALLAALCPASRALEEKKVCQGTSNKLTQLGTFEDHFLSLQRMFNNCEVVLGNLEITYVQRNYDLSFLKTIQEVAGYVLIALNTVERIPLENLQIIRGNMYYENSYALAVLSNYDANKTGLKELPMRNLQEILHGAVRFSNNPALCNVESIQWRDIVSSDFLSNMSMDFQNHLGSCQKCDPSCPNGSCWGAGEENCQKLTKIICAQQCSGRCRGKSPSDCCHNQCAAGCTGPRESDCLVCRKFRDEATCKDTCPPLMLYNPTTYQMDVNPEGKYSFGATCVKKCPRNYVVTDHGSCVRACGADSYEMEEDGVRKCKKCEGPCRKVCNGIGIGEFKDSLSINATNIKHFKNCTSISGDLHILPVAFRGDSFTHTPPLDPQELDILKTVKEITGFLLIQAWPENRTDLHAFENLEIIRGRTKQHGQFSLAVVSLNITSLGLRSLKEISDGDVIISGNKNLCYANTINWKKLFGTSGQKTKIISNRGENSCKATGQVCHALCSPEGCWGPEPRDCVSCRNVSRGRECVDKCNLLEGEPREFVENSECIQCHPECLPQAMNITCTGRGPDNCIQCAHYIDGPHCVKTCPAGVMGENNTLVWKYADAGHVCHLCHPNCTYGCTGPGLEGCPTNGPKIPSIATGMVGALLLLLVVALGIGLFMRRRHIVRKRTLRRLLQERELVEPLTPSGEAPNQALLRILKETEFKKIKVLGSGAFGTVYKGLWIPEGEKVKIPVAIKELREATSPKANKEILDEAYVMASVDNPHVCRLLGICLTSTVQLITQLMPFGCLLDYVREHKDNIGSQYLLNWCVQIAKGMNYLEDRRLVHRDLAARNVLVKTPQHVKITDFGLAKLLGAEEKEYHAEGGKVPIKWMALESILHRIYTHQSDVWSYGVTVWELMTFGSKPYDGIPASEISSILEKGERLPQPPICTIDVYMIMVKCWMIDADSRPKFRELIIEFSKMARDPQRYLVIQGDERMHLPSPTDSNFYRALMDEEDMDDVVDADEYLIPQQGFFSSPSTSRTPLLSSLSATSNNSTVACIDRNGLQSCPIKEDSFLQRYSSDPTGALTEDSIDDTFLPVPEYINQSVPKRPAGSVQNPVYHNQPLNPAPSRDPHYQDPHSTAVGNPEYLNTVQPTCVNSTFDSPAHWAQKGSHQISLDNPDYQQDFFPKEAKPNGIFKGSTAENAEYLRVAPQSSEFIGA

> <PDB ID(s) of Target Chain>
1IVO,1M14,1M17,1MOX,1XKK,1Z9I,2GS2,2GS6,2ITW,2ITX,2ITY,2J5E,2J5F,2J6M,2RF9,2RGP,3B2V,3BEL,3GOP,3POZ,3QWQ,3VJO,3W2O,3W2P,3W2Q,3W2R,3W2S,3W32,3W33,4G5J,4I23,4JQ7,4JQ8,4JR3,4JRV,4KRO,4LI5,4RJ4,4RJ5,4RJ6,4RJ7,4RJ8,4TKS,4UIP,4UV7,4WKQ,4WRG,4ZAU,5C8K,5C8M,5C8N,5CAL,5CAN,5CAO,5CAP,5CAQ,5CAS,5CAU,5CAV,5EDP,5EDQ,5EDR,5EM5,5EM6,5EM7,5EM8,5FED,5GNK,5HCX,5HCY,5HCZ,5HIB,5HIC,5UGB,5WB7,5WB8,5Y25,6S89,6S8A

> <UniProt (SwissProt) Recommended Name of Target Chain>
Epidermal growth factor receptor

> <UniProt (SwissProt) Entry Name of Target Chain>
EGFR_HUMAN

> <UniProt (SwissProt) Primary ID of Target Chain>
P00533

> <UniProt (SwissProt) Secondary ID(s) of Target Chain>
O00688,O00732,P06268,Q14225,Q68GS5,Q92795,Q9BZS2,Q9GZX1,Q9H2C9,Q9H3C9,Q9UMD7,Q9UMD8,Q9UMG5

> <UniProt (SwissProt) Alternative ID(s) of Target Chain>


> <UniProt (TrEMBL) Submitted Name of Target Chain>


> <UniProt (TrEMBL) Entry Name of Target Chain>


> <UniProt (TrEMBL) Primary ID of Target Chain>


> <UniProt (TrEMBL) Secondary ID(s) of Target Chain>


> <UniProt (TrEMBL) Alternative ID(s) of Target Chain>


> <training label>
7.95861

> <i_lp_mmshare_version>
54117

> <s_epik_input>
W0NIM11bTkhdYyhbY0hdMSlbY0hdW2NIXWMoYzEyKW5bY0hdbmMyW05IXWMzW2NIXWMoW0NIM10pW2NIXVtjSF1bY0hdMw==

> <s_epik_cmdline>
J2VwaWtfcHl0aG9uJywgJy1waHQnLCAnMC4xJywgJy1waCcsICc3LjQnLCAnLXRuJywgJzgnLCAnLW1hJywgJzIwMCcsICctaW1hZScsICc8aW5maWxlLm1hZT4nLCAnLW9tYWUnLCAnPG91dGZpbGUubWFlPic=

> <r_lp_tautomer_probability>
1

> <r_epik_Ionization_Penalty>
  0.0007

> <r_epik_Ionization_Penalty_Charging>
  0.0000

> <r_epik_Ionization_Penalty_Neutral>
  0.0007

> <r_epik_State_Penalty>
  0.0000

> <r_epik_Charging_Adjusted_Penalty>
0

> <i_epik_Tot_Q>
0

> <i_epik_Tot_abs_Q>
0

> <i_f3d_flags>
0

> <s_lp_Force_Field>
OPLS_2005

> <r_lp_Energy>
14.042569

> <b_lp_Chiralities_Consistent>
1

> <s_lp_Variant>
BindingDB_50188464_mol_1-1

> <s_i_glide_gridfile>
struct_1_site_1

> <i_i_glide_lignum>
226

> <i_i_glide_rotatable_bonds>
3

> <r_i_docking_score>
-7.87793971915321

> <r_i_glide_ligand_efficiency>
-0.393896985957661

> <r_i_glide_ligand_efficiency_sa>
-1.06920091673943

> <r_i_glide_ligand_efficiency_ln>
-1.97158847986234

> <r_i_glide_gscore>
-7.87793971915321

> <r_i_glide_lipo>
-2.75461302841231

> <r_i_glide_hbond>
-0.32

> <r_i_glide_metal>
0

> <r_i_glide_rewards>
-2.76709165880253

> <r_i_glide_evdw>
-34.0608749389648

> <r_i_glide_ecoul>
-5.61344432830811

> <r_i_glide_erotb>
0.508825364256085

> <r_i_glide_esite>
0

> <r_i_glide_emodel>
-34.6978026362557

> <r_i_glide_energy>
-39.6743192672729

> <r_i_glide_einternal>
3.22060918807983

> <i_i_glide_confnum>
6

> <i_i_glide_posenum>
340

> <r_i_glide_eff_state_penalty>
0

> <IC50 (nM)>
11

> <PMID>
16759097

> <r_glide_shape_similarity>
0.762588977813721

> <s_m_subgroup_title>
505 training

> <s_m_subgroupid>
pocket_pv

> <b_m_subgroup_collapsed>
0

$$$$
BindingDB_50307773_mol_1
                    3D
 Schrodinger Suite 2021-2.
 53 55  0  0  1  0            999 V2000
   20.1374    0.4904   52.1170 C   0  0  0  0  0  0
   19.3180   -0.4044   52.8404 C   0  0  0  0  0  0
   19.8964   -1.2125   53.8538 C   0  0  0  0  0  0
   21.5030    0.6333   52.4701 C   0  0  0  0  0  0
   22.0679   -0.1709   53.4935 C   0  0  0  0  0  0
   21.2654   -1.1192   54.1832 C   0  0  0  0  0  0
   21.8021   -1.9068   55.1447 N   0  0  0  0  0  0
   23.0980   -1.7521   55.4174 C   0  0  0  0  0  0
   23.9374   -0.8988   54.8336 N   0  0  0  0  0  0
   23.4347   -0.0964   53.8683 C   0  0  0  0  0  0
   19.5245    1.1736   51.0838 O   0  0  0  0  0  0
   17.9780   -0.4362   52.4858 O   0  0  0  0  0  0
   17.0678   -1.1680   53.2935 C   0  0  0  0  0  0
   24.2851    0.8534   53.2779 N   0  0  0  0  0  0
   25.6834    0.9497   53.3424 C   0  0  0  0  0  0
   26.5085   -0.2004   53.3336 C   0  0  0  0  0  0
   27.9093   -0.0748   53.3882 C   0  0  0  0  0  0
   28.4894    1.2088   53.4603 C   0  0  0  0  0  0
   27.6766    2.3619   53.4309 C   0  0  0  0  0  0
   26.2745    2.2346   53.3675 C   0  0  0  0  0  0
   20.2773    1.4735   49.9126 C   0  0  0  0  0  0
   20.4485    2.9945   49.8551 C   0  0  0  0  0  0
   21.3975    3.4606   48.7300 C   0  0  0  0  0  0
   21.7960    4.9578   48.8294 C   0  0  0  0  0  0
   22.8003    5.2845   49.9826 C   0  0  0  0  0  0
   23.1338    6.7893   50.1405 C   0  0  0  0  0  0
   24.0868    7.0982   51.0523 N   0  0  0  0  0  0
   22.5479    7.6411   49.4537 O   0  0  0  0  0  0
   24.6461    8.4123   50.9678 O   0  0  0  0  0  0
   29.8309    1.3268   53.5833 F   0  0  0  0  0  0
   28.9027   -1.4934   53.3747 Cl  0  0  0  0  0  0
   19.2965   -1.9182   54.4040 H   0  0  0  0  0  0
   22.1119    1.3425   51.9299 H   0  0  0  0  0  0
   23.5136   -2.3993   56.1745 H   0  0  0  0  0  0
   16.0460   -0.9898   52.9520 H   0  0  0  0  0  0
   17.2586   -2.2364   53.2237 H   0  0  0  0  0  0
   17.1245   -0.8652   54.3393 H   0  0  0  0  0  0
   23.8216    1.6291   52.8292 H   0  0  0  0  0  0
   26.0759   -1.1856   53.2781 H   0  0  0  0  0  0
   28.1251    3.3426   53.4749 H   0  0  0  0  0  0
   25.6665    3.1289   53.3620 H   0  0  0  0  0  0
   19.7129    1.1300   49.0418 H   0  0  0  0  0  0
   21.2325    0.9444   49.8829 H   0  0  0  0  0  0
   20.8463    3.3236   50.8157 H   0  0  0  0  0  0
   19.4767    3.4793   49.7453 H   0  0  0  0  0  0
   20.9158    3.2735   47.7696 H   0  0  0  0  0  0
   22.3046    2.8552   48.7313 H   0  0  0  0  0  0
   20.8920    5.5628   48.9310 H   0  0  0  0  0  0
   22.2499    5.2574   47.8828 H   0  0  0  0  0  0
   23.7266    4.7307   49.8260 H   0  0  0  0  0  0
   22.3890    4.9524   50.9373 H   0  0  0  0  0  0
   24.7123    6.4730   51.5583 H   0  0  0  0  0  0
   25.1243    8.5024   51.7966 H   0  0  0  0  0  0
  1  2  2  0  0  0
  1  4  1  0  0  0
  1 11  1  0  0  0
  2  3  1  0  0  0
  2 12  1  0  0  0
  3  6  2  0  0  0
  3 32  1  0  0  0
  4  5  2  0  0  0
  4 33  1  0  0  0
  5  6  1  0  0  0
  5 10  1  0  0  0
  6  7  1  0  0  0
  7  8  2  0  0  0
  8  9  1  0  0  0
  8 34  1  0  0  0
  9 10  2  0  0  0
 10 14  1  0  0  0
 11 21  1  0  0  0
 12 13  1  0  0  0
 13 35  1  0  0  0
 13 36  1  0  0  0
 13 37  1  0  0  0
 14 15  1  0  0  0
 14 38  1  0  0  0
 15 16  2  0  0  0
 15 20  1  0  0  0
 16 17  1  0  0  0
 16 39  1  0  0  0
 17 18  2  0  0  0
 17 31  1  0  0  0
 18 19  1  0  0  0
 18 30  1  0  0  0
 19 20  2  0  0  0
 19 40  1  0  0  0
 20 41  1  0  0  0
 21 22  1  0  0  0
 21 42  1  0  0  0
 21 43  1  0  0  0
 22 23  1  0  0  0
 22 44  1  0  0  0
 22 45  1  0  0  0
 23 24  1  0  0  0
 23 46  1  0  0  0
 23 47  1  0  0  0
 24 25  1  0  0  0
 24 48  1  0  0  0
 24 49  1  0  0  0
 25 26  1  0  0  0
 25 50  1  0  0  0
 25 51  1  0  0  0
 26 27  1  0  0  0
 26 28  2  0  0  0
 27 29  1  0  0  0
 27 52  1  0  0  0
 29 53  1  0  0  0
M  END
> <s_m_entry_id>
259

> <s_m_entry_name>
pocket_pv.70

> <s_m_Source_Path>
/home/bortolaa/Project/GT/mario-master/docking/set505protein_struct_1_site_1_set505ligs_train

> <s_m_Source_File>
pocket_pv.maegz

> <i_m_Source_File_Index>
70

> <From>
www.bindingDB.org

> <BindingDB Reactant_set_id>
50552098

> <Ligand InChI>
InChI=1S/C21H22ClFN4O4/c1-30-18-11-17-14(10-19(18)31-8-4-2-3-5-20(28)27-29)21(25-12-24-17)26-13-6-7-16(23)15(22)9-13/h6-7,9-12,29H,2-5,8H2,1H3,(H,27,28)(H,24,25,26)

> <Ligand InChI Key>
CADRLZXVKIQPSG-UHFFFAOYSA-N

> <BindingDB MonomerID>
50307773

> <BindingDB Ligand Name>
7-(4-(3-Chloro-4-fluorophenylamino)-7-methoxyquinazolin-6-yloxy)-N-hydroxyhexanamide::CHEMBL598163

> <Target Name Assigned by Curator or DataSource>
Epidermal growth factor receptor

> <Target Source Organism According to Curator or DataSource>
Homo sapiens

> <Ki (nM)>


> <Kd (nM)>


> <EC50 (nM)>


> <kon (M-1-s-1)>


> <koff (s-1)>


> <pH>


> <Temp C>


> <Curation/DataSource>
ChEMBL

> <Article DOI>
10.1021/jm901453q

> <PubChem AID>


> <Patent Number>


> <Authors>
Cai, X; Zhai, HX; Wang, J; Forrester, J; Qu, H; Yin, L; Lai, CJ; Bao, R; Qian, C

> <Institution>
Curis Inc

> <Link to Ligand in BindingDB>
http://www.bindingdb.org/bind/chemsearch/marvin/MolStructure.jsp?monomerid=50307773

> <Link to Ligand-Target Pair in BindingDB>
http://www.bindingdb.org/jsp/dbsearch/PrimarySearch_ki.jsp?energyterm=kJ/mole&tag=r21&monomerid=50307773&enzyme=Epidermal+growth+factor+receptor&column=ki&startPg=0&Increment=50&submit=Search

> <Ligand HET ID in PDB>


> <PDB ID(s) for Ligand-Target Complex>


> <PubChem CID>
24944851

> <PubChem SID>
104162134

> <ChEBI ID of Ligand>


> <ChEMBL ID of Ligand>
CHEMBL598163

> <DrugBank ID of Ligand>


> <IUPHAR_GRAC ID of Ligand>


> <KEGG ID of Ligand>


> <ZINC ID of Ligand>
ZINC45358974

> <Number of Protein Chains in Target (>
1

> <BindingDB Target Chain Sequence>
MRPSGTAGAALLALLAALCPASRALEEKKVCQGTSNKLTQLGTFEDHFLSLQRMFNNCEVVLGNLEITYVQRNYDLSFLKTIQEVAGYVLIALNTVERIPLENLQIIRGNMYYENSYALAVLSNYDANKTGLKELPMRNLQEILHGAVRFSNNPALCNVESIQWRDIVSSDFLSNMSMDFQNHLGSCQKCDPSCPNGSCWGAGEENCQKLTKIICAQQCSGRCRGKSPSDCCHNQCAAGCTGPRESDCLVCRKFRDEATCKDTCPPLMLYNPTTYQMDVNPEGKYSFGATCVKKCPRNYVVTDHGSCVRACGADSYEMEEDGVRKCKKCEGPCRKVCNGIGIGEFKDSLSINATNIKHFKNCTSISGDLHILPVAFRGDSFTHTPPLDPQELDILKTVKEITGFLLIQAWPENRTDLHAFENLEIIRGRTKQHGQFSLAVVSLNITSLGLRSLKEISDGDVIISGNKNLCYANTINWKKLFGTSGQKTKIISNRGENSCKATGQVCHALCSPEGCWGPEPRDCVSCRNVSRGRECVDKCNLLEGEPREFVENSECIQCHPECLPQAMNITCTGRGPDNCIQCAHYIDGPHCVKTCPAGVMGENNTLVWKYADAGHVCHLCHPNCTYGCTGPGLEGCPTNGPKIPSIATGMVGALLLLLVVALGIGLFMRRRHIVRKRTLRRLLQERELVEPLTPSGEAPNQALLRILKETEFKKIKVLGSGAFGTVYKGLWIPEGEKVKIPVAIKELREATSPKANKEILDEAYVMASVDNPHVCRLLGICLTSTVQLITQLMPFGCLLDYVREHKDNIGSQYLLNWCVQIAKGMNYLEDRRLVHRDLAARNVLVKTPQHVKITDFGLAKLLGAEEKEYHAEGGKVPIKWMALESILHRIYTHQSDVWSYGVTVWELMTFGSKPYDGIPASEISSILEKGERLPQPPICTIDVYMIMVKCWMIDADSRPKFRELIIEFSKMARDPQRYLVIQGDERMHLPSPTDSNFYRALMDEEDMDDVVDADEYLIPQQGFFSSPSTSRTPLLSSLSATSNNSTVACIDRNGLQSCPIKEDSFLQRYSSDPTGALTEDSIDDTFLPVPEYINQSVPKRPAGSVQNPVYHNQPLNPAPSRDPHYQDPHSTAVGNPEYLNTVQPTCVNSTFDSPAHWAQKGSHQISLDNPDYQQDFFPKEAKPNGIFKGSTAENAEYLRVAPQSSEFIGA

> <PDB ID(s) of Target Chain>
1IVO,1M14,1M17,1MOX,1XKK,1Z9I,2GS2,2GS6,2ITW,2ITX,2ITY,2J5E,2J5F,2J6M,2RF9,2RGP,3B2V,3BEL,3GOP,3POZ,3QWQ,3VJO,3W2O,3W2P,3W2Q,3W2R,3W2S,3W32,3W33,4G5J,4I23,4JQ7,4JQ8,4JR3,4JRV,4KRO,4LI5,4RJ4,4RJ5,4RJ6,4RJ7,4RJ8,4TKS,4UIP,4UV7,4WKQ,4WRG,4ZAU,5C8K,5C8M,5C8N,5CAL,5CAN,5CAO,5CAP,5CAQ,5CAS,5CAU,5CAV,5EDP,5EDQ,5EDR,5EM5,5EM6,5EM7,5EM8,5FED,5GNK,5HCX,5HCY,5HCZ,5HIB,5HIC,5UGB,5WB7,5WB8,5Y25,6S89,6S8A

> <UniProt (SwissProt) Recommended Name of Target Chain>
Epidermal growth factor receptor

> <UniProt (SwissProt) Entry Name of Target Chain>
EGFR_HUMAN

> <UniProt (SwissProt) Primary ID of Target Chain>
P00533

> <UniProt (SwissProt) Secondary ID(s) of Target Chain>
O00688,O00732,P06268,Q14225,Q68GS5,Q92795,Q9BZS2,Q9GZX1,Q9H2C9,Q9H3C9,Q9UMD7,Q9UMD8,Q9UMG5

> <UniProt (SwissProt) Alternative ID(s) of Target Chain>


> <UniProt (TrEMBL) Submitted Name of Target Chain>


> <UniProt (TrEMBL) Entry Name of Target Chain>


> <UniProt (TrEMBL) Primary ID of Target Chain>


> <UniProt (TrEMBL) Secondary ID(s) of Target Chain>


> <UniProt (TrEMBL) Alternative ID(s) of Target Chain>


> <training label>
8.46852

> <i_lp_mmshare_version>
54117

> <s_epik_input>
W09IXVtOSF1DKD1PKVtDSDJdW0NIMl1bQ0gyXVtDSDJdW0NIMl1PYyhbY0hdMSljKE9bQ0gzXSlbY0hdYyhjMTIpbltjSF1uYzJbTkhdYzNbY0hdYyhDbCljKEYpW2NIXVtjSF0z

> <s_epik_cmdline>
J2VwaWtfcHl0aG9uJywgJy1waHQnLCAnMC4xJywgJy1waCcsICc3LjQnLCAnLXRuJywgJzgnLCAnLW1hJywgJzIwMCcsICctaW1hZScsICc8aW5maWxlLm1hZT4nLCAnLW9tYWUnLCAnPG91dGZpbGUubWFlPic=

> <r_lp_tautomer_probability>
1

> <r_epik_Ionization_Penalty>
  0.0095

> <r_epik_Ionization_Penalty_Charging>
  0.0000

> <r_epik_Ionization_Penalty_Neutral>
  0.0095

> <r_epik_State_Penalty>
  0.0000

> <r_epik_Charging_Adjusted_Penalty>
0

> <i_epik_Tot_Q>
0

> <i_epik_Tot_abs_Q>
0

> <i_f3d_flags>
0

> <s_lp_Force_Field>
OPLS_2005

> <r_lp_Energy>
28.155308

> <b_lp_Chiralities_Consistent>
1

> <s_lp_Variant>
BindingDB_50307773_mol_1-1

> <s_i_glide_gridfile>
struct_1_site_1

> <i_i_glide_lignum>
261

> <i_i_glide_rotatable_bonds>
12

> <r_i_docking_score>
-7.8765682751476

> <r_i_glide_ligand_efficiency>
-0.254082847585406

> <r_i_glide_ligand_efficiency_sa>
-0.798170940595671

> <r_i_glide_ligand_efficiency_ln>
-1.77640753387383

> <r_i_glide_gscore>
-7.8765682751476

> <r_i_glide_lipo>
-2.97541528838856

> <r_i_glide_hbond>
-0.304

> <r_i_glide_metal>
0

> <r_i_glide_rewards>
-1.49344670825767

> <r_i_glide_evdw>
-45.2662620544434

> <r_i_glide_ecoul>
-11.2506475448608

> <r_i_glide_erotb>
0.994414439488264

> <r_i_glide_esite>
-0.147210483538335

> <r_i_glide_emodel>
-59.6623026383727

> <r_i_glide_energy>
-56.5169095993042

> <r_i_glide_einternal>
8.1409330368042

> <i_i_glide_confnum>
169

> <i_i_glide_posenum>
69

> <r_i_glide_eff_state_penalty>
0

> <IC50 (nM)>
3.4

> <PMID>
20143778

> <s_epik_Chemistry_Notes>
This compound has a N-S or N-O group and may undergo hydrolysis at high or low pH.

> <r_glide_shape_similarity>
0.785057663917542

> <s_m_subgroup_title>
505 training

> <s_m_subgroupid>
pocket_pv

> <b_m_subgroup_collapsed>
0

$$$$
BindingDB_50118009
                    3D
 Schrodinger Suite 2021-2.
 48 51  0  0  1  0            999 V2000
   21.6629   -0.1051   53.3096 C   0  0  0  0  0  0
   23.0135   -0.0136   53.7019 C   0  0  0  0  0  0
   28.3367   -0.7213   53.3746 C   0  0  0  0  0  0
   20.8536   -1.0349   54.0078 C   0  0  0  0  0  0
   21.1318    0.6855   52.2625 C   0  0  0  0  0  0
   29.5893   -0.5564   53.7594 N   0  0  0  0  0  0
   23.5359   -0.8224   54.6481 N   0  0  0  0  0  0
   19.4840   -1.1101   53.6520 C   0  0  0  0  0  0
   23.7994    1.0016   53.1478 N   0  0  0  0  0  0
   19.7715    0.5901   51.9048 C   0  0  0  0  0  0
   18.9389   -0.2970   52.6179 C   0  0  0  0  0  0
   27.8825   -2.3754   52.9746 S   0  0  0  0  0  0
   27.4244    0.3631   53.3448 C   0  0  0  0  0  0
   21.3987   -1.8163   54.9747 N   0  0  0  0  0  0
   22.6995   -1.6689   55.2348 C   0  0  0  0  0  0
   30.2647   -1.7455   53.7745 C   0  0  0  0  0  0
   25.1668    1.1965   53.2611 C   0  0  0  0  0  0
   26.0507    0.1134   53.2362 C   0  0  0  0  0  0
   29.4994   -2.8260   53.3767 C   0  0  0  0  0  0
   19.1723    1.3341   50.9020 O   0  0  0  0  0  0
   17.6104   -0.2899   52.2331 O   0  0  0  0  0  0
   27.9279    1.6694   53.4692 C   0  0  0  0  0  0
   27.0383    2.7329   53.4996 C   0  0  0  0  0  0
   25.6585    2.5085   53.3707 C   0  0  0  0  0  0
   19.9076    2.2942   50.1478 C   0  0  0  0  0  0
   16.6129   -0.7156   53.1541 C   0  0  0  0  0  0
   20.6803    1.6388   48.9985 C   0  0  0  0  0  0
   15.2845   -0.0201   52.8094 C   0  0  0  0  0  0
   21.7708    1.3667   51.7265 H   0  0  0  0  0  0
   18.8552   -1.8030   54.1902 H   0  0  0  0  0  0
   23.2912    1.7715   52.7442 H   0  0  0  0  0  0
   23.1142   -2.3058   56.0030 H   0  0  0  0  0  0
   31.2780   -1.6674   54.1436 H   0  0  0  0  0  0
   25.6622   -0.8885   53.1349 H   0  0  0  0  0  0
   29.7747   -3.8652   53.3725 H   0  0  0  0  0  0
   28.9849    1.8753   53.5639 H   0  0  0  0  0  0
   27.4278    3.7187   53.6527 H   0  0  0  0  0  0
   24.9890    3.3548   53.3878 H   0  0  0  0  0  0
   20.5560    2.8971   50.7813 H   0  0  0  0  0  0
   19.1825    2.9911   49.7268 H   0  0  0  0  0  0
   16.5052   -1.7982   53.0931 H   0  0  0  0  0  0
   16.8886   -0.4765   54.1780 H   0  0  0  0  0  0
   21.2243    2.3878   48.4255 H   0  0  0  0  0  0
   20.0018    1.1310   48.3175 H   0  0  0  0  0  0
   21.4005    0.9078   49.3615 H   0  0  0  0  0  0
   14.4880   -0.3669   53.4698 H   0  0  0  0  0  0
   15.3605    1.0615   52.9206 H   0  0  0  0  0  0
   14.9846   -0.2344   51.7808 H   0  0  0  0  0  0
  1  2  1  0  0  0
  1  4  1  0  0  0
  1  5  2  0  0  0
  2  7  2  0  0  0
  2  9  1  0  0  0
  3  6  2  0  0  0
  3 12  1  0  0  0
  3 13  1  0  0  0
  4  8  2  0  0  0
  4 14  1  0  0  0
  5 10  1  0  0  0
  5 29  1  0  0  0
  6 16  1  0  0  0
  7 15  1  0  0  0
  8 11  1  0  0  0
  8 30  1  0  0  0
  9 17  1  0  0  0
  9 31  1  0  0  0
 10 11  2  0  0  0
 10 20  1  0  0  0
 11 21  1  0  0  0
 12 19  1  0  0  0
 13 18  1  0  0  0
 13 22  2  0  0  0
 14 15  2  0  0  0
 15 32  1  0  0  0
 16 19  2  0  0  0
 16 33  1  0  0  0
 17 18  2  0  0  0
 17 24  1  0  0  0
 18 34  1  0  0  0
 19 35  1  0  0  0
 20 25  1  0  0  0
 21 26  1  0  0  0
 22 23  1  0  0  0
 22 36  1  0  0  0
 23 24  2  0  0  0
 23 37  1  0  0  0
 24 38  1  0  0  0
 25 27  1  0  0  0
 25 39  1  0  0  0
 25 40  1  0  0  0
 26 28  1  0  0  0
 26 41  1  0  0  0
 26 42  1  0  0  0
 27 43  1  0  0  0
 27 44  1  0  0  0
 27 45  1  0  0  0
 28 46  1  0  0  0
 28 47  1  0  0  0
 28 48  1  0  0  0
M  END
> <s_m_entry_id>
260

> <s_m_entry_name>
pocket_pv.71

> <s_m_Source_Path>
/home/bortolaa/Project/GT/mario-master/docking/set505protein_struct_1_site_1_set505ligs_train

> <s_m_Source_File>
pocket_pv.maegz

> <i_m_Source_File_Index>
71

> <From>
www.bindingDB.org

> <BindingDB Reactant_set_id>
50213006

> <Ligand InChI>
InChI=1S/C21H20N4O2S/c1-3-26-18-11-16-17(12-19(18)27-4-2)23-13-24-20(16)25-15-7-5-6-14(10-15)21-22-8-9-28-21/h5-13H,3-4H2,1-2H3,(H,23,24,25)

> <Ligand InChI Key>
AVBDTONYELTCBP-UHFFFAOYSA-N

> <BindingDB MonomerID>
50118009

> <BindingDB Ligand Name>
(6,7-Diethoxy-quinazolin-4-yl)-(3-thiazol-2-yl-phenyl)-amine::CHEMBL126192

> <Target Name Assigned by Curator or DataSource>
Epidermal growth factor receptor

> <Target Source Organism According to Curator or DataSource>
Homo sapiens

> <Ki (nM)>


> <Kd (nM)>


> <EC50 (nM)>


> <kon (M-1-s-1)>


> <koff (s-1)>


> <pH>


> <Temp C>


> <Curation/DataSource>
ChEMBL

> <Article DOI>
10.1021/jm010496a

> <PubChem AID>


> <Patent Number>


> <Authors>
Wright, SW; Carlo, AA; Carty, MD; Danley, DE; Hageman, DL; Karam, GA; Levy, CB; Mansour, MN; Mathiowetz, AM; McClure, LD; Nestor, NB; McPherson, RK; Pandit, J; Pustilnik, LR; Schulte, GK; Soeller, WC; Treadway, JL; Wang, IK; Bauer, PH

> <Institution>
Pfizer Central Research

> <Link to Ligand in BindingDB>
http://www.bindingdb.org/bind/chemsearch/marvin/MolStructure.jsp?monomerid=50118009

> <Link to Ligand-Target Pair in BindingDB>
http://www.bindingdb.org/jsp/dbsearch/PrimarySearch_ki.jsp?energyterm=kJ/mole&tag=r21&monomerid=50118009&enzyme=Epidermal+growth+factor+receptor&column=ki&startPg=0&Increment=50&submit=Search

> <Ligand HET ID in PDB>


> <PDB ID(s) for Ligand-Target Complex>


> <PubChem CID>
10216042

> <PubChem SID>
104011413

> <ChEBI ID of Ligand>


> <ChEMBL ID of Ligand>
CHEMBL126192

> <DrugBank ID of Ligand>


> <IUPHAR_GRAC ID of Ligand>


> <KEGG ID of Ligand>


> <ZINC ID of Ligand>
ZINC13490787

> <Number of Protein Chains in Target (>
1

> <BindingDB Target Chain Sequence>
MRPSGTAGAALLALLAALCPASRALEEKKVCQGTSNKLTQLGTFEDHFLSLQRMFNNCEVVLGNLEITYVQRNYDLSFLKTIQEVAGYVLIALNTVERIPLENLQIIRGNMYYENSYALAVLSNYDANKTGLKELPMRNLQEILHGAVRFSNNPALCNVESIQWRDIVSSDFLSNMSMDFQNHLGSCQKCDPSCPNGSCWGAGEENCQKLTKIICAQQCSGRCRGKSPSDCCHNQCAAGCTGPRESDCLVCRKFRDEATCKDTCPPLMLYNPTTYQMDVNPEGKYSFGATCVKKCPRNYVVTDHGSCVRACGADSYEMEEDGVRKCKKCEGPCRKVCNGIGIGEFKDSLSINATNIKHFKNCTSISGDLHILPVAFRGDSFTHTPPLDPQELDILKTVKEITGFLLIQAWPENRTDLHAFENLEIIRGRTKQHGQFSLAVVSLNITSLGLRSLKEISDGDVIISGNKNLCYANTINWKKLFGTSGQKTKIISNRGENSCKATGQVCHALCSPEGCWGPEPRDCVSCRNVSRGRECVDKCNLLEGEPREFVENSECIQCHPECLPQAMNITCTGRGPDNCIQCAHYIDGPHCVKTCPAGVMGENNTLVWKYADAGHVCHLCHPNCTYGCTGPGLEGCPTNGPKIPSIATGMVGALLLLLVVALGIGLFMRRRHIVRKRTLRRLLQERELVEPLTPSGEAPNQALLRILKETEFKKIKVLGSGAFGTVYKGLWIPEGEKVKIPVAIKELREATSPKANKEILDEAYVMASVDNPHVCRLLGICLTSTVQLITQLMPFGCLLDYVREHKDNIGSQYLLNWCVQIAKGMNYLEDRRLVHRDLAARNVLVKTPQHVKITDFGLAKLLGAEEKEYHAEGGKVPIKWMALESILHRIYTHQSDVWSYGVTVWELMTFGSKPYDGIPASEISSILEKGERLPQPPICTIDVYMIMVKCWMIDADSRPKFRELIIEFSKMARDPQRYLVIQGDERMHLPSPTDSNFYRALMDEEDMDDVVDADEYLIPQQGFFSSPSTSRTPLLSSLSATSNNSTVACIDRNGLQSCPIKEDSFLQRYSSDPTGALTEDSIDDTFLPVPEYINQSVPKRPAGSVQNPVYHNQPLNPAPSRDPHYQDPHSTAVGNPEYLNTVQPTCVNSTFDSPAHWAQKGSHQISLDNPDYQQDFFPKEAKPNGIFKGSTAENAEYLRVAPQSSEFIGA

> <PDB ID(s) of Target Chain>
1IVO,1M14,1M17,1MOX,1XKK,1Z9I,2GS2,2GS6,2ITW,2ITX,2ITY,2J5E,2J5F,2J6M,2RF9,2RGP,3B2V,3BEL,3GOP,3POZ,3QWQ,3VJO,3W2O,3W2P,3W2Q,3W2R,3W2S,3W32,3W33,4G5J,4I23,4JQ7,4JQ8,4JR3,4JRV,4KRO,4LI5,4RJ4,4RJ5,4RJ6,4RJ7,4RJ8,4TKS,4UIP,4UV7,4WKQ,4WRG,4ZAU,5C8K,5C8M,5C8N,5CAL,5CAN,5CAO,5CAP,5CAQ,5CAS,5CAU,5CAV,5EDP,5EDQ,5EDR,5EM5,5EM6,5EM7,5EM8,5FED,5GNK,5HCX,5HCY,5HCZ,5HIB,5HIC,5UGB,5WB7,5WB8,5Y25,6S89,6S8A

> <UniProt (SwissProt) Recommended Name of Target Chain>
Epidermal growth factor receptor

> <UniProt (SwissProt) Entry Name of Target Chain>
EGFR_HUMAN

> <UniProt (SwissProt) Primary ID of Target Chain>
P00533

> <UniProt (SwissProt) Secondary ID(s) of Target Chain>
O00688,O00732,P06268,Q14225,Q68GS5,Q92795,Q9BZS2,Q9GZX1,Q9H2C9,Q9H3C9,Q9UMD7,Q9UMD8,Q9UMG5

> <UniProt (SwissProt) Alternative ID(s) of Target Chain>


> <UniProt (TrEMBL) Submitted Name of Target Chain>


> <UniProt (TrEMBL) Entry Name of Target Chain>


> <UniProt (TrEMBL) Primary ID of Target Chain>


> <UniProt (TrEMBL) Secondary ID(s) of Target Chain>


> <UniProt (TrEMBL) Alternative ID(s) of Target Chain>


> <training label>
8.69897

> <i_lp_mmshare_version>
54117

> <s_epik_input>
W0NIM11bQ0gyXU9jKFtjSF0xKWMoT1tDSDJdW0NIM10pW2NIXWMoYzEyKW5bY0hdbmMyW05IXWMoW2NIXVtjSF1bY0hdMylbY0hdYzMtYzRuW2NIXVtjSF1zNA==

> <s_epik_cmdline>
J2VwaWtfcHl0aG9uJywgJy1waHQnLCAnMC4xJywgJy1waCcsICc3LjQnLCAnLXRuJywgJzgnLCAnLW1hJywgJzIwMCcsICctaW1hZScsICc8aW5maWxlLm1hZT4nLCAnLW9tYWUnLCAnPG91dGZpbGUubWFlPic=

> <r_lp_tautomer_probability>
1

> <r_epik_Ionization_Penalty>
  0.0005

> <r_epik_Ionization_Penalty_Charging>
  0.0000

> <r_epik_Ionization_Penalty_Neutral>
  0.0005

> <r_epik_State_Penalty>
  0.0000

> <r_epik_Charging_Adjusted_Penalty>
0

> <i_epik_Tot_Q>
0

> <i_epik_Tot_abs_Q>
0

> <i_f3d_flags>
0

> <s_lp_Force_Field>
OPLS_2005

> <r_lp_Energy>
21.775878

> <b_lp_Chiralities_Consistent>
1

> <s_lp_Variant>
BindingDB_50118009-1

> <s_i_glide_gridfile>
struct_1_site_1

> <i_i_glide_lignum>
271

> <i_i_glide_rotatable_bonds>
7

> <r_i_docking_score>
-7.87634620998085

> <r_i_glide_ligand_efficiency>
-0.281298078927887

> <r_i_glide_ligand_efficiency_sa>
-0.854186643333458

> <r_i_glide_ligand_efficiency_ln>
-1.81809196483716

> <r_i_glide_gscore>
-7.87634620998085

> <r_i_glide_lipo>
-3.53210729610115

> <r_i_glide_hbond>
-0.314120673683321

> <r_i_glide_metal>
0

> <r_i_glide_rewards>
-1.90652456815936

> <r_i_glide_evdw>
-41.982307434082

> <r_i_glide_ecoul>
-4.38840007781982

> <r_i_glide_erotb>
0.633781711340067

> <r_i_glide_esite>
0

> <r_i_glide_emodel>
-55.9723097832249

> <r_i_glide_energy>
-46.3707075119019

> <r_i_glide_einternal>
2.01927065849304

> <i_i_glide_confnum>
1

> <i_i_glide_posenum>
69

> <r_i_glide_eff_state_penalty>
0

> <IC50 (nM)>
2

> <PMID>
12190310

> <r_glide_shape_similarity>
0.862460792064667

> <s_m_subgroup_title>
505 training

> <s_m_subgroupid>
pocket_pv

> <b_m_subgroup_collapsed>
0

$$$$
4-Anilinoquinazoline
                    3D
 Schrodinger Suite 2021-2.
 55 58  0  0  1  0            999 V2000
   23.4694   -0.1021   53.8734 C   0  0  0  0  0  0
   23.0825   -1.7418   55.4340 C   0  0  0  0  0  0
   21.2655   -1.0886   54.1774 C   0  0  0  0  0  0
   22.0980   -0.1455   53.4985 C   0  0  0  0  0  0
   21.5637    0.6754   52.4761 C   0  0  0  0  0  0
   20.2062    0.5580   52.0952 C   0  0  0  0  0  0
   19.3762   -0.3693   52.7658 C   0  0  0  0  0  0
   19.8990   -1.1808   53.8107 C   0  0  0  0  0  0
   23.9353   -0.9101   54.8537 N   0  0  0  0  0  0
   21.7891   -1.8858   55.1422 N   0  0  0  0  0  0
   25.8310    0.4951   53.2524 C   0  0  0  0  0  0
   28.1527    1.2798   53.5038 C   0  0  0  0  0  0
   26.7612    1.5557   53.4032 C   0  0  0  0  0  0
   26.3312   -0.8291   53.1167 C   0  0  0  0  0  0
   28.6153   -0.0597   53.4543 C   0  0  0  0  0  0
   26.3193    2.8284   53.5022 F   0  0  0  0  0  0
   24.4316    0.7342   53.2597 N   0  0  0  0  0  0
   24.1147    1.6330   52.9154 H   0  0  0  0  0  0
   18.1161   -0.4843   52.2281 O   0  0  0  0  0  0
   19.6312    1.2994   51.0728 O   0  0  0  0  0  0
   20.4606    1.7413   50.0015 C   0  0  0  0  0  0
   16.9997   -0.8323   53.0246 C   0  0  0  0  0  0
   27.7083   -1.1134   53.2332 C   0  0  0  0  0  0
   30.2859   -0.4494   53.6862 Cl  0  0  0  0  0  0
   15.8077   -0.9170   52.0304 C   0  0  2  0  0  0
   15.6694    0.3143   51.1005 C   0  0  0  0  0  0
   15.1359    1.5311   51.8784 C   0  0  0  0  0  0
   14.4513   -1.2035   52.7218 C   0  0  0  0  0  0
   13.8230    1.1977   52.6289 C   0  0  0  0  0  0
   13.9568   -0.0198   53.4881 N   0  3  1  0  0  0
   12.7104   -0.3140   54.2468 C   0  0  0  0  0  0
   23.4835   -2.4075   56.1809 H   0  0  0  0  0  0
   22.2055    1.3784   51.9669 H   0  0  0  0  0  0
   19.2726   -1.9039   54.3126 H   0  0  0  0  0  0
   28.8523    2.0886   53.6666 H   0  0  0  0  0  0
   25.6498   -1.6561   52.9668 H   0  0  0  0  0  0
   19.8336    2.0876   49.1789 H   0  0  0  0  0  0
   21.0912    2.5711   50.3259 H   0  0  0  0  0  0
   21.0948    0.9291   49.6315 H   0  0  0  0  0  0
   16.8253   -0.0667   53.7754 H   0  0  0  0  0  0
   17.1479   -1.7835   53.5304 H   0  0  0  0  0  0
   28.0603   -2.1338   53.1877 H   0  0  0  0  0  0
   16.0187   -1.7686   51.3824 H   0  0  0  0  0  0
   14.9682    0.0765   50.2981 H   0  0  0  0  0  0
   16.6131    0.5568   50.6092 H   0  0  0  0  0  0
   14.9616    2.3591   51.1892 H   0  0  0  0  0  0
   15.8927    1.8788   52.5735 H   0  0  0  0  0  0
   14.5442   -2.0692   53.3767 H   0  0  0  0  0  0
   13.7085   -1.4676   51.9662 H   0  0  0  0  0  0
   13.0185    1.0496   51.9070 H   0  0  0  0  0  0
   13.5338    2.0510   53.2453 H   0  0  0  0  0  0
   11.8781   -0.5290   53.5781 H   0  0  0  0  0  0
   12.4287    0.5296   54.8771 H   0  0  0  0  0  0
   12.8449   -1.1796   54.8987 H   0  0  0  0  0  0
   14.6763    0.1843   54.1768 H   0  0  0  0  0  0
  1  4  2  0  0  0
  1  9  1  0  0  0
  1 17  1  0  0  0
  2  9  2  0  0  0
  2 10  1  0  0  0
  2 32  1  0  0  0
  3  4  1  0  0  0
  3  8  1  0  0  0
  3 10  2  0  0  0
  4  5  1  0  0  0
  5  6  2  0  0  0
  5 33  1  0  0  0
  6  7  1  0  0  0
  6 20  1  0  0  0
  7  8  2  0  0  0
  7 19  1  0  0  0
  8 34  1  0  0  0
 11 13  2  0  0  0
 11 14  1  0  0  0
 11 17  1  0  0  0
 12 13  1  0  0  0
 12 15  2  0  0  0
 12 35  1  0  0  0
 13 16  1  0  0  0
 14 23  2  0  0  0
 14 36  1  0  0  0
 15 23  1  0  0  0
 15 24  1  0  0  0
 17 18  1  0  0  0
 19 22  1  0  0  0
 20 21  1  0  0  0
 21 37  1  0  0  0
 21 38  1  0  0  0
 21 39  1  0  0  0
 22 25  1  0  0  0
 22 40  1  0  0  0
 22 41  1  0  0  0
 23 42  1  0  0  0
 25 26  1  0  0  0
 25 28  1  0  0  0
 25 43  1  0  0  0
 26 27  1  0  0  0
 26 44  1  0  0  0
 26 45  1  0  0  0
 27 29  1  0  0  0
 27 46  1  0  0  0
 27 47  1  0  0  0
 28 30  1  0  0  0
 28 48  1  0  0  0
 28 49  1  0  0  0
 29 30  1  0  0  0
 29 50  1  0  0  0
 29 51  1  0  0  0
 30 31  1  0  0  0
 30 55  1  0  0  0
 31 52  1  0  0  0
 31 53  1  0  0  0
 31 54  1  0  0  0
M  CHG  1  30   1
M  END
> <s_m_entry_id>
261

> <s_m_entry_name>
pocket_pv.72

> <s_m_Source_Path>
/home/bortolaa/Project/GT/mario-master/docking/set505protein_struct_1_site_1_set505ligs_train

> <s_m_Source_File>
pocket_pv.maegz

> <i_m_Source_File_Index>
72

> <From>
www.bindingDB.org

> <BindingDB Reactant_set_id>
7095

> <Ligand InChI>
InChI=1S/C22H24ClFN4O2/c1-28-7-3-4-14(11-28)12-30-21-10-19-16(9-20(21)29-2)22(26-13-25-19)27-18-6-5-15(23)8-17(18)24/h5-6,8-10,13-14H,3-4,7,11-12H2,1-2H3,(H,25,26,27)/t14-/m1/s1

> <Ligand InChI Key>
OZVUSEVFXCWUBV-CQSZACIVSA-N

> <BindingDB MonomerID>
4682

> <BindingDB Ligand Name>
4-Anilinoquinazoline 29::N-(4-chloro-2-fluorophenyl)-6-methoxy-7-{[(3R)-1-methylpiperidin-3-yl]methoxy}quinazolin-4-amine

> <Target Name Assigned by Curator or DataSource>
Epidermal growth factor receptor

> <Target Source Organism According to Curator or DataSource>
Homo sapiens

> <Ki (nM)>


> <Kd (nM)>


> <EC50 (nM)>


> <kon (M-1-s-1)>


> <koff (s-1)>


> <pH>


> <Curation/DataSource>
Curated from the literature by BindingDB

> <Article DOI>
10.1021/jm011022e

> <PubChem AID>


> <Patent Number>


> <Authors>
Hennequin, LF; Stokes, ES; Thomas, AP; Johnstone, C; Ple, PA; Ogilvie, DJ; Dukes, M; Wedge, SR; Kendrew, J; Curwen, JO

> <Institution>
AstraZeneca

> <Link to Ligand in BindingDB>
http://www.bindingdb.org/bind/chemsearch/marvin/MolStructure.jsp?monomerid=4682

> <Link to Ligand-Target Pair in BindingDB>
http://www.bindingdb.org/jsp/dbsearch/PrimarySearch_ki.jsp?energyterm=kJ/mole&tag=r21&monomerid=4682&enzyme=Epidermal+growth+factor+receptor&column=ki&startPg=0&Increment=50&submit=Search

> <Ligand HET ID in PDB>


> <PDB ID(s) for Ligand-Target Complex>


> <PubChem CID>
5329055

> <PubChem SID>
8034339

> <ChEBI ID of Ligand>


> <ChEMBL ID of Ligand>


> <DrugBank ID of Ligand>


> <IUPHAR_GRAC ID of Ligand>


> <KEGG ID of Ligand>


> <ZINC ID of Ligand>
ZINC13472799

> <Number of Protein Chains in Target (>
1

> <BindingDB Target Chain Sequence>
MRPSGTAGAALLALLAALCPASRALEEKKVCQGTSNKLTQLGTFEDHFLSLQRMFNNCEVVLGNLEITYVQRNYDLSFLKTIQEVAGYVLIALNTVERIPLENLQIIRGNMYYENSYALAVLSNYDANKTGLKELPMRNLQEILHGAVRFSNNPALCNVESIQWRDIVSSDFLSNMSMDFQNHLGSCQKCDPSCPNGSCWGAGEENCQKLTKIICAQQCSGRCRGKSPSDCCHNQCAAGCTGPRESDCLVCRKFRDEATCKDTCPPLMLYNPTTYQMDVNPEGKYSFGATCVKKCPRNYVVTDHGSCVRACGADSYEMEEDGVRKCKKCEGPCRKVCNGIGIGEFKDSLSINATNIKHFKNCTSISGDLHILPVAFRGDSFTHTPPLDPQELDILKTVKEITGFLLIQAWPENRTDLHAFENLEIIRGRTKQHGQFSLAVVSLNITSLGLRSLKEISDGDVIISGNKNLCYANTINWKKLFGTSGQKTKIISNRGENSCKATGQVCHALCSPEGCWGPEPRDCVSCRNVSRGRECVDKCNLLEGEPREFVENSECIQCHPECLPQAMNITCTGRGPDNCIQCAHYIDGPHCVKTCPAGVMGENNTLVWKYADAGHVCHLCHPNCTYGCTGPGLEGCPTNGPKIPSIATGMVGALLLLLVVALGIGLFMRRRHIVRKRTLRRLLQERELVEPLTPSGEAPNQALLRILKETEFKKIKVLGSGAFGTVYKGLWIPEGEKVKIPVAIKELREATSPKANKEILDEAYVMASVDNPHVCRLLGICLTSTVQLITQLMPFGCLLDYVREHKDNIGSQYLLNWCVQIAKGMNYLEDRRLVHRDLAARNVLVKTPQHVKITDFGLAKLLGAEEKEYHAEGGKVPIKWMALESILHRIYTHQSDVWSYGVTVWELMTFGSKPYDGIPASEISSILEKGERLPQPPICTIDVYMIMVKCWMIDADSRPKFRELIIEFSKMARDPQRYLVIQGDERMHLPSPTDSNFYRALMDEEDMDDVVDADEYLIPQQGFFSSPSTSRTPLLSSLSATSNNSTVACIDRNGLQSCPIKEDSFLQRYSSDPTGALTEDSIDDTFLPVPEYINQSVPKRPAGSVQNPVYHNQPLNPAPSRDPHYQDPHSTAVGNPEYLNTVQPTCVNSTFDSPAHWAQKGSHQISLDNPDYQQDFFPKEAKPNGIFKGSTAENAEYLRVAPQSSEFIGA

> <PDB ID(s) of Target Chain>
1IVO,1M14,1M17,1MOX,1XKK,1Z9I,2GS2,2GS6,2ITW,2ITX,2ITY,2J5E,2J5F,2J6M,2RF9,2RGP,3B2V,3BEL,3GOP,3POZ,3QWQ,3VJO,3W2O,3W2P,3W2Q,3W2R,3W2S,3W32,3W33,4G5J,4I23,4JQ7,4JQ8,4JR3,4JRV,4KRO,4LI5,4RJ4,4RJ5,4RJ6,4RJ7,4RJ8,4TKS,4UIP,4UV7,4WKQ,4WRG,4ZAU,5C8K,5C8M,5C8N,5CAL,5CAN,5CAO,5CAP,5CAQ,5CAS,5CAU,5CAV,5EDP,5EDQ,5EDR,5EM5,5EM6,5EM7,5EM8,5FED,5GNK,5HCX,5HCY,5HCZ,5HIB,5HIC,5UGB,5WB7,5WB8,5Y25,6S89,6S8A

> <UniProt (SwissProt) Recommended Name of Target Chain>
Epidermal growth factor receptor

> <UniProt (SwissProt) Entry Name of Target Chain>
EGFR_HUMAN

> <UniProt (SwissProt) Primary ID of Target Chain>
P00533

> <UniProt (SwissProt) Secondary ID(s) of Target Chain>
O00688,O00732,P06268,Q14225,Q68GS5,Q92795,Q9BZS2,Q9GZX1,Q9H2C9,Q9H3C9,Q9UMD7,Q9UMD8,Q9UMG5

> <UniProt (SwissProt) Alternative ID(s) of Target Chain>


> <UniProt (TrEMBL) Submitted Name of Target Chain>


> <UniProt (TrEMBL) Entry Name of Target Chain>


> <UniProt (TrEMBL) Primary ID of Target Chain>


> <UniProt (TrEMBL) Secondary ID(s) of Target Chain>


> <UniProt (TrEMBL) Alternative ID(s) of Target Chain>


> <training label>
7

> <i_lp_mmshare_version>
54117

> <s_epik_input>
W2NIXTFbY0hdYyhDbClbY0hdYyhGKWMxW05IXWMobltjSF1uMiljKGMyMylbY0hdYyhPW0NIM10pYyhbY0hdMylPW0NIMl1bQ0BASF00W0NIMl1bQ0gyXVtDSDJdTihbQ0gyXTQpW0NIM10=

> <s_epik_cmdline>
J2VwaWtfcHl0aG9uJywgJy1waHQnLCAnMC4xJywgJy1waCcsICc3LjQnLCAnLXRuJywgJzgnLCAnLW1hJywgJzIwMCcsICctaW1hZScsICc8aW5maWxlLm1hZT4nLCAnLW9tYWUnLCAnPG91dGZpbGUubWFlPic=

> <r_lp_tautomer_probability>
1

> <r_epik_Ionization_Penalty>
  0.0065

> <r_epik_Ionization_Penalty_Charging>
  0.0059

> <r_epik_Ionization_Penalty_Neutral>
  0.0006

> <r_epik_State_Penalty>
  0.0000

> <r_epik_Charging_Adjusted_Penalty>
0.00586086653697188

> <i_epik_Tot_Q>
1

> <i_epik_Tot_abs_Q>
1

> <i_f3d_flags>
0

> <s_lp_Force_Field>
OPLS_2005

> <r_lp_Energy>
33.504914

> <b_lp_Chiralities_Consistent>
1

> <s_lp_Variant>
4-Anilinoquinazoline-2

> <s_i_glide_gridfile>
struct_1_site_1

> <i_i_glide_lignum>
159

> <i_i_glide_rotatable_bonds>
6

> <r_i_docking_score>
-7.86801901488872

> <r_i_glide_ligand_efficiency>
-0.262267300496291

> <r_i_glide_ligand_efficiency_sa>
-0.814925480426935

> <r_i_glide_ligand_efficiency_ln>
-1.78769964911623

> <r_i_glide_gscore>
-7.86801901488872

> <r_i_glide_lipo>
-3.47106782845788

> <r_i_glide_hbond>
-0.32

> <r_i_glide_metal>
0

> <r_i_glide_rewards>
-1.60463482024126

> <r_i_glide_evdw>
-42.4565658569336

> <r_i_glide_ecoul>
-5.21803045272827

> <r_i_glide_erotb>
0.533216494566337

> <r_i_glide_esite>
-0.1

> <r_i_glide_emodel>
-54.0621261563848

> <r_i_glide_energy>
-47.6745963096619

> <r_i_glide_einternal>
4.01744699478149

> <i_i_glide_confnum>
71

> <i_i_glide_posenum>
31

> <r_i_glide_eff_state_penalty>
0

> <IC50 (nM)>
100

> <PMID>
11881999

> <Temp C>
25

> <r_glide_shape_similarity>
0.834424257278442

> <s_m_subgroup_title>
505 training

> <s_m_subgroupid>
pocket_pv

> <b_m_subgroup_collapsed>
0

$$$$
4-Anilinoquinazoline
                    3D
 Schrodinger Suite 2021-2.
 58 61  0  0  1  0            999 V2000
   23.4596   -0.1031   53.8703 C   0  0  0  0  0  0
   23.0127   -1.7057   55.4405 C   0  0  0  0  0  0
   21.2239   -1.0355   54.1536 C   0  0  0  0  0  0
   22.0893   -0.1203   53.4737 C   0  0  0  0  0  0
   21.6006    0.6853   52.4194 C   0  0  0  0  0  0
   20.2419    0.6025   52.0316 C   0  0  0  0  0  0
   19.3755   -0.2803   52.7103 C   0  0  0  0  0  0
   19.8571   -1.0826   53.7744 C   0  0  0  0  0  0
   23.8928   -0.8935   54.8703 N   0  0  0  0  0  0
   21.7193   -1.8288   55.1224 N   0  0  0  0  0  0
   25.8364    0.4823   53.2825 C   0  0  0  0  0  0
   28.1520    1.2823   53.5530 C   0  0  0  0  0  0
   26.7586    1.5494   53.4237 C   0  0  0  0  0  0
   26.3408   -0.8419   53.1813 C   0  0  0  0  0  0
   28.6194   -0.0546   53.5273 C   0  0  0  0  0  0
   26.3070    2.8193   53.4842 F   0  0  0  0  0  0
   24.4389    0.7221   53.2744 N   0  0  0  0  0  0
   24.1325    1.6117   52.8990 H   0  0  0  0  0  0
   18.1073   -0.2897   52.1709 O   0  0  0  0  0  0
   19.6821    1.3407   50.9993 O   0  0  0  0  0  0
   20.5256    1.8795   49.9864 C   0  0  0  0  0  0
   16.9965   -0.7837   52.8790 C   0  0  0  0  0  0
   27.7191   -1.1173   53.3339 C   0  0  0  0  0  0
   30.2861   -0.4431   53.7749 Cl  0  0  0  0  0  0
   15.8155   -0.1972   52.0772 C   0  0  0  0  0  0
   14.4112   -0.6598   52.5385 C   0  0  1  0  0  0
   12.9023    1.0644   51.3407 C   0  0  0  0  0  0
   13.5019    1.4636   53.7213 C   0  0  0  0  0  0
   13.9728   -0.0075   53.8719 C   0  0  0  0  0  0
   13.3109   -0.4259   51.4603 C   0  0  0  0  0  0
   12.4439    1.6117   52.6631 N   0  3  1  0  0  0
   11.9253    2.9993   52.5496 C   0  0  0  0  0  0
   23.3819   -2.3509   56.2244 H   0  0  0  0  0  0
   22.2682    1.3677   51.9110 H   0  0  0  0  0  0
   19.1947   -1.7586   54.2930 H   0  0  0  0  0  0
   28.8433    2.1008   53.6819 H   0  0  0  0  0  0
   25.6557   -1.6692   53.0455 H   0  0  0  0  0  0
   19.9090    2.2521   49.1635 H   0  0  0  0  0  0
   21.1068    2.7187   50.3803 H   0  0  0  0  0  0
   21.2072    1.1229   49.5820 H   0  0  0  0  0  0
   16.9943   -0.4651   53.9198 H   0  0  0  0  0  0
   16.9991   -1.8743   52.8566 H   0  0  0  0  0  0
   28.0692   -2.1381   53.2943 H   0  0  0  0  0  0
   15.9499   -0.4971   51.0309 H   0  0  0  0  0  0
   15.8825    0.8910   52.0764 H   0  0  0  0  0  0
   14.4633   -1.7412   52.7031 H   0  0  0  0  0  0
   13.7486    1.6519   50.9778 H   0  0  0  0  0  0
   12.1114    1.1719   50.5944 H   0  0  0  0  0  0
   14.3460    2.1101   53.4720 H   0  0  0  0  0  0
   13.1024    1.8206   54.6704 H   0  0  0  0  0  0
   14.7922   -0.0497   54.5744 H   0  0  0  0  0  0
   13.1712   -0.5971   54.3193 H   0  0  0  0  0  0
   12.4233   -1.0088   51.7157 H   0  0  0  0  0  0
   13.6399   -0.8024   50.4943 H   0  0  0  0  0  0
   12.7149    3.6832   52.2409 H   0  0  0  0  0  0
   11.1099    3.0708   51.8306 H   0  0  0  0  0  0
   11.5407    3.3492   53.5060 H   0  0  0  0  0  0
   11.6489    1.0343   52.9559 H   0  0  0  0  0  0
  1  4  2  0  0  0
  1  9  1  0  0  0
  1 17  1  0  0  0
  2  9  2  0  0  0
  2 10  1  0  0  0
  2 33  1  0  0  0
  3  4  1  0  0  0
  3  8  1  0  0  0
  3 10  2  0  0  0
  4  5  1  0  0  0
  5  6  2  0  0  0
  5 34  1  0  0  0
  6  7  1  0  0  0
  6 20  1  0  0  0
  7  8  2  0  0  0
  7 19  1  0  0  0
  8 35  1  0  0  0
 11 13  2  0  0  0
 11 14  1  0  0  0
 11 17  1  0  0  0
 12 13  1  0  0  0
 12 15  2  0  0  0
 12 36  1  0  0  0
 13 16  1  0  0  0
 14 23  2  0  0  0
 14 37  1  0  0  0
 15 23  1  0  0  0
 15 24  1  0  0  0
 17 18  1  0  0  0
 19 22  1  0  0  0
 20 21  1  0  0  0
 21 38  1  0  0  0
 21 39  1  0  0  0
 21 40  1  0  0  0
 22 25  1  0  0  0
 22 41  1  0  0  0
 22 42  1  0  0  0
 23 43  1  0  0  0
 25 26  1  0  0  0
 25 44  1  0  0  0
 25 45  1  0  0  0
 26 29  1  0  0  0
 26 30  1  0  0  0
 26 46  1  0  0  0
 27 30  1  0  0  0
 27 31  1  0  0  0
 27 47  1  0  0  0
 27 48  1  0  0  0
 28 29  1  0  0  0
 28 31  1  0  0  0
 28 49  1  0  0  0
 28 50  1  0  0  0
 29 51  1  0  0  0
 29 52  1  0  0  0
 30 53  1  0  0  0
 30 54  1  0  0  0
 31 32  1  0  0  0
 31 58  1  0  0  0
 32 55  1  0  0  0
 32 56  1  0  0  0
 32 57  1  0  0  0
M  CHG  1  31   1
M  END
> <s_m_entry_id>
262

> <s_m_entry_name>
pocket_pv.73

> <s_m_Source_Path>
/home/bortolaa/Project/GT/mario-master/docking/set505protein_struct_1_site_1_set505ligs_train

> <s_m_Source_File>
pocket_pv.maegz

> <i_m_Source_File_Index>
73

> <From>
www.bindingDB.org

> <BindingDB Reactant_set_id>
7092

> <Ligand InChI>
InChI=1S/C23H26ClFN4O2/c1-29-8-5-15(6-9-29)7-10-31-22-13-20-17(12-21(22)30-2)23(27-14-26-20)28-19-4-3-16(24)11-18(19)25/h3-4,11-15H,5-10H2,1-2H3,(H,26,27,28)

> <Ligand InChI Key>
VEOIWTSZBRXBQG-UHFFFAOYSA-N

> <BindingDB MonomerID>
4679

> <BindingDB Ligand Name>
4-Anilinoquinazoline 26::N-(4-chloro-2-fluorophenyl)-6-methoxy-7-[2-(1-methylpiperidin-4-yl)ethoxy]quinazolin-4-amine

> <Target Name Assigned by Curator or DataSource>
Epidermal growth factor receptor

> <Target Source Organism According to Curator or DataSource>
Homo sapiens

> <Ki (nM)>


> <Kd (nM)>


> <EC50 (nM)>


> <kon (M-1-s-1)>


> <koff (s-1)>


> <pH>


> <Curation/DataSource>
Curated from the literature by BindingDB

> <Article DOI>
10.1021/jm011022e

> <PubChem AID>


> <Patent Number>


> <Authors>
Hennequin, LF; Stokes, ES; Thomas, AP; Johnstone, C; Ple, PA; Ogilvie, DJ; Dukes, M; Wedge, SR; Kendrew, J; Curwen, JO

> <Institution>
AstraZeneca

> <Link to Ligand in BindingDB>
http://www.bindingdb.org/bind/chemsearch/marvin/MolStructure.jsp?monomerid=4679

> <Link to Ligand-Target Pair in BindingDB>
http://www.bindingdb.org/jsp/dbsearch/PrimarySearch_ki.jsp?energyterm=kJ/mole&tag=r21&monomerid=4679&enzyme=Epidermal+growth+factor+receptor&column=ki&startPg=0&Increment=50&submit=Search

> <Ligand HET ID in PDB>


> <PDB ID(s) for Ligand-Target Complex>


> <PubChem CID>
5329052

> <PubChem SID>
8034336

> <ChEBI ID of Ligand>


> <ChEMBL ID of Ligand>


> <DrugBank ID of Ligand>


> <IUPHAR_GRAC ID of Ligand>


> <KEGG ID of Ligand>


> <ZINC ID of Ligand>
ZINC08662784

> <Number of Protein Chains in Target (>
1

> <BindingDB Target Chain Sequence>
MRPSGTAGAALLALLAALCPASRALEEKKVCQGTSNKLTQLGTFEDHFLSLQRMFNNCEVVLGNLEITYVQRNYDLSFLKTIQEVAGYVLIALNTVERIPLENLQIIRGNMYYENSYALAVLSNYDANKTGLKELPMRNLQEILHGAVRFSNNPALCNVESIQWRDIVSSDFLSNMSMDFQNHLGSCQKCDPSCPNGSCWGAGEENCQKLTKIICAQQCSGRCRGKSPSDCCHNQCAAGCTGPRESDCLVCRKFRDEATCKDTCPPLMLYNPTTYQMDVNPEGKYSFGATCVKKCPRNYVVTDHGSCVRACGADSYEMEEDGVRKCKKCEGPCRKVCNGIGIGEFKDSLSINATNIKHFKNCTSISGDLHILPVAFRGDSFTHTPPLDPQELDILKTVKEITGFLLIQAWPENRTDLHAFENLEIIRGRTKQHGQFSLAVVSLNITSLGLRSLKEISDGDVIISGNKNLCYANTINWKKLFGTSGQKTKIISNRGENSCKATGQVCHALCSPEGCWGPEPRDCVSCRNVSRGRECVDKCNLLEGEPREFVENSECIQCHPECLPQAMNITCTGRGPDNCIQCAHYIDGPHCVKTCPAGVMGENNTLVWKYADAGHVCHLCHPNCTYGCTGPGLEGCPTNGPKIPSIATGMVGALLLLLVVALGIGLFMRRRHIVRKRTLRRLLQERELVEPLTPSGEAPNQALLRILKETEFKKIKVLGSGAFGTVYKGLWIPEGEKVKIPVAIKELREATSPKANKEILDEAYVMASVDNPHVCRLLGICLTSTVQLITQLMPFGCLLDYVREHKDNIGSQYLLNWCVQIAKGMNYLEDRRLVHRDLAARNVLVKTPQHVKITDFGLAKLLGAEEKEYHAEGGKVPIKWMALESILHRIYTHQSDVWSYGVTVWELMTFGSKPYDGIPASEISSILEKGERLPQPPICTIDVYMIMVKCWMIDADSRPKFRELIIEFSKMARDPQRYLVIQGDERMHLPSPTDSNFYRALMDEEDMDDVVDADEYLIPQQGFFSSPSTSRTPLLSSLSATSNNSTVACIDRNGLQSCPIKEDSFLQRYSSDPTGALTEDSIDDTFLPVPEYINQSVPKRPAGSVQNPVYHNQPLNPAPSRDPHYQDPHSTAVGNPEYLNTVQPTCVNSTFDSPAHWAQKGSHQISLDNPDYQQDFFPKEAKPNGIFKGSTAENAEYLRVAPQSSEFIGA

> <PDB ID(s) of Target Chain>
1IVO,1M14,1M17,1MOX,1XKK,1Z9I,2GS2,2GS6,2ITW,2ITX,2ITY,2J5E,2J5F,2J6M,2RF9,2RGP,3B2V,3BEL,3GOP,3POZ,3QWQ,3VJO,3W2O,3W2P,3W2Q,3W2R,3W2S,3W32,3W33,4G5J,4I23,4JQ7,4JQ8,4JR3,4JRV,4KRO,4LI5,4RJ4,4RJ5,4RJ6,4RJ7,4RJ8,4TKS,4UIP,4UV7,4WKQ,4WRG,4ZAU,5C8K,5C8M,5C8N,5CAL,5CAN,5CAO,5CAP,5CAQ,5CAS,5CAU,5CAV,5EDP,5EDQ,5EDR,5EM5,5EM6,5EM7,5EM8,5FED,5GNK,5HCX,5HCY,5HCZ,5HIB,5HIC,5UGB,5WB7,5WB8,5Y25,6S89,6S8A

> <UniProt (SwissProt) Recommended Name of Target Chain>
Epidermal growth factor receptor

> <UniProt (SwissProt) Entry Name of Target Chain>
EGFR_HUMAN

> <UniProt (SwissProt) Primary ID of Target Chain>
P00533

> <UniProt (SwissProt) Secondary ID(s) of Target Chain>
O00688,O00732,P06268,Q14225,Q68GS5,Q92795,Q9BZS2,Q9GZX1,Q9H2C9,Q9H3C9,Q9UMD7,Q9UMD8,Q9UMG5

> <UniProt (SwissProt) Alternative ID(s) of Target Chain>


> <UniProt (TrEMBL) Submitted Name of Target Chain>


> <UniProt (TrEMBL) Entry Name of Target Chain>


> <UniProt (TrEMBL) Primary ID of Target Chain>


> <UniProt (TrEMBL) Secondary ID(s) of Target Chain>


> <UniProt (TrEMBL) Alternative ID(s) of Target Chain>


> <training label>
6.52288

> <i_lp_mmshare_version>
54117

> <s_epik_input>
W2NIXTFbY0hdYyhDbClbY0hdYyhGKWMxW05IXWMobltjSF1uMiljKGMyMylbY0hdYyhPW0NIM10pYyhbY0hdMylPW0NIMl1bQ0gyXVtDSF00W0NIMl1bQ0gyXU4oW0NIM10pW0NIMl1bQ0gyXTQ=

> <s_epik_cmdline>
J2VwaWtfcHl0aG9uJywgJy1waHQnLCAnMC4xJywgJy1waCcsICc3LjQnLCAnLXRuJywgJzgnLCAnLW1hJywgJzIwMCcsICctaW1hZScsICc8aW5maWxlLm1hZT4nLCAnLW9tYWUnLCAnPG91dGZpbGUubWFlPic=

> <r_lp_tautomer_probability>
1

> <r_epik_Ionization_Penalty>
  0.0028

> <r_epik_Ionization_Penalty_Charging>
  0.0022

> <r_epik_Ionization_Penalty_Neutral>
  0.0007

> <r_epik_State_Penalty>
  0.0000

> <r_epik_Charging_Adjusted_Penalty>
0.00215668419207172

> <i_epik_Tot_Q>
1

> <i_epik_Tot_abs_Q>
1

> <i_f3d_flags>
0

> <s_lp_Force_Field>
OPLS_2005

> <r_lp_Energy>
35.859407

> <b_lp_Chiralities_Consistent>
1

> <s_lp_Variant>
4-Anilinoquinazoline-2

> <s_i_glide_gridfile>
struct_1_site_1

> <i_i_glide_lignum>
125

> <i_i_glide_rotatable_bonds>
7

> <r_i_docking_score>
-7.86697594695425

> <r_i_glide_ligand_efficiency>
-0.253773417643685

> <r_i_glide_ligand_efficiency_sa>
-0.79719890336459

> <r_i_glide_ligand_efficiency_ln>
-1.77424416989668

> <r_i_glide_gscore>
-7.86697594695425

> <r_i_glide_lipo>
-3.4000390916937

> <r_i_glide_hbond>
-0.32

> <r_i_glide_metal>
0

> <r_i_glide_rewards>
-1.52269407322342

> <r_i_glide_evdw>
-44.1072807312012

> <r_i_glide_ecoul>
-6.04691362380981

> <r_i_glide_erotb>
0.603810935512166

> <r_i_glide_esite>
-0.115652637417752

> <r_i_glide_emodel>
-54.1338282341627

> <r_i_glide_energy>
-50.154194355011

> <r_i_glide_einternal>
4.08203268051147

> <i_i_glide_confnum>
120

> <i_i_glide_posenum>
199

> <r_i_glide_eff_state_penalty>
0

> <IC50 (nM)>
300

> <PMID>
11881999

> <Temp C>
25

> <r_glide_shape_similarity>
0.787431061267853

> <s_m_subgroup_title>
505 training

> <s_m_subgroupid>
pocket_pv

> <b_m_subgroup_collapsed>
0

$$$$
4-Anilinoquinazoline
                    3D
 Schrodinger Suite 2021-2.
 57 60  0  0  1  0            999 V2000
   23.4654   -0.1047   53.8711 C   0  0  0  0  0  0
   23.0956   -1.7540   55.4225 C   0  0  0  0  0  0
   21.2747   -1.1030   54.1789 C   0  0  0  0  0  0
   22.0948   -0.1561   53.4952 C   0  0  0  0  0  0
   21.5424    0.6519   52.4736 C   0  0  0  0  0  0
   20.1744    0.5385   52.1209 C   0  0  0  0  0  0
   19.3453   -0.3632   52.8271 C   0  0  0  0  0  0
   19.9045   -1.1888   53.8388 C   0  0  0  0  0  0
   23.9403   -0.9071   54.8485 N   0  0  0  0  0  0
   21.8022   -1.9006   55.1392 N   0  0  0  0  0  0
   25.8194    0.5009   53.2453 C   0  0  0  0  0  0
   28.1414    1.2790   53.5095 C   0  0  0  0  0  0
   26.7515    1.5591   53.4255 C   0  0  0  0  0  0
   26.3177   -0.8223   53.0904 C   0  0  0  0  0  0
   27.6922   -1.1069   53.2014 C   0  0  0  0  0  0
   28.6040   -0.0612   53.4309 C   0  0  0  0  0  0
   26.3038    2.8285   53.5718 F   0  0  0  0  0  0
   24.4217    0.7330   53.2546 N   0  0  0  0  0  0
   24.1008    1.6335   52.9193 H   0  0  0  0  0  0
   19.5925    1.2784   51.1085 O   0  0  0  0  0  0
   20.4059    1.6433   49.9931 C   0  0  0  0  0  0
   18.0193   -0.3712   52.4493 O   0  0  0  0  0  0
   17.1163   -1.2358   53.1172 C   0  0  0  0  0  0
   15.7874   -1.1604   52.3489 C   0  0  0  0  0  0
   30.2788   -0.4534   53.6313 Cl  0  0  0  0  0  0
   14.0199    2.0749   51.4738 C   0  0  0  0  0  0
   13.3157    1.3492   53.7022 C   0  0  0  0  0  0
   13.9665   -0.0312   53.4327 C   0  0  0  0  0  0
   14.7029    0.6914   51.2675 C   0  0  0  0  0  0
   15.1411    0.1376   52.5605 N   0  0  2  0  0  0
   12.8608    1.9707   52.4183 N   0  3  0  0  0  0
   12.1340    3.2654   52.6114 C   0  0  0  0  0  0
   23.4971   -2.4047   56.1808 H   0  0  0  0  0  0
   22.1722    1.3605   51.9587 H   0  0  0  0  0  0
   19.2898   -1.8810   54.3925 H   0  0  0  0  0  0
   28.8405    2.0836   53.6748 H   0  0  0  0  0  0
   25.6369   -1.6457   52.9194 H   0  0  0  0  0  0
   28.0397   -2.1274   53.1231 H   0  0  0  0  0  0
   19.7690    1.9912   49.1814 H   0  0  0  0  0  0
   21.0893    2.4558   50.2565 H   0  0  0  0  0  0
   20.9838    0.7904   49.6176 H   0  0  0  0  0  0
   16.9894   -0.9587   54.1648 H   0  0  0  0  0  0
   17.4788   -2.2627   53.0813 H   0  0  0  0  0  0
   15.1307   -1.9794   52.6507 H   0  0  0  0  0  0
   15.9960   -1.3360   51.2902 H   0  0  0  0  0  0
   13.6683    2.4555   50.5149 H   0  0  0  0  0  0
   14.7453    2.7925   51.8639 H   0  0  0  0  0  0
   12.4742    1.2421   54.3872 H   0  0  0  0  0  0
   14.0364    2.0163   54.1745 H   0  0  0  0  0  0
   14.2747   -0.4650   54.3801 H   0  0  0  0  0  0
   13.2455   -0.7187   52.9869 H   0  0  0  0  0  0
   14.0132    0.0009   50.7794 H   0  0  0  0  0  0
   15.5697    0.8054   50.6127 H   0  0  0  0  0  0
   12.7838    4.0274   53.0478 H   0  0  0  0  0  0
   11.7611    3.6405   51.6553 H   0  0  0  0  0  0
   11.2702    3.1334   53.2678 H   0  0  0  0  0  0
   12.1856    1.3310   52.0011 H   0  0  0  0  0  0
  1  4  2  0  0  0
  1  9  1  0  0  0
  1 18  1  0  0  0
  2  9  2  0  0  0
  2 10  1  0  0  0
  2 33  1  0  0  0
  3  4  1  0  0  0
  3  8  1  0  0  0
  3 10  2  0  0  0
  4  5  1  0  0  0
  5  6  2  0  0  0
  5 34  1  0  0  0
  6  7  1  0  0  0
  6 20  1  0  0  0
  7  8  2  0  0  0
  7 22  1  0  0  0
  8 35  1  0  0  0
 11 13  2  0  0  0
 11 14  1  0  0  0
 11 18  1  0  0  0
 12 13  1  0  0  0
 12 16  2  0  0  0
 12 36  1  0  0  0
 13 17  1  0  0  0
 14 15  2  0  0  0
 14 37  1  0  0  0
 15 16  1  0  0  0
 15 38  1  0  0  0
 16 25  1  0  0  0
 18 19  1  0  0  0
 20 21  1  0  0  0
 21 39  1  0  0  0
 21 40  1  0  0  0
 21 41  1  0  0  0
 22 23  1  0  0  0
 23 24  1  0  0  0
 23 42  1  0  0  0
 23 43  1  0  0  0
 24 30  1  0  0  0
 24 44  1  0  0  0
 24 45  1  0  0  0
 26 29  1  0  0  0
 26 31  1  0  0  0
 26 46  1  0  0  0
 26 47  1  0  0  0
 27 28  1  0  0  0
 27 31  1  0  0  0
 27 48  1  0  0  0
 27 49  1  0  0  0
 28 30  1  0  0  0
 28 50  1  0  0  0
 28 51  1  0  0  0
 29 30  1  0  0  0
 29 52  1  0  0  0
 29 53  1  0  0  0
 31 32  1  0  0  0
 31 57  1  0  0  0
 32 54  1  0  0  0
 32 55  1  0  0  0
 32 56  1  0  0  0
M  CHG  1  31   1
M  END
> <s_m_entry_id>
263

> <s_m_entry_name>
pocket_pv.74

> <s_m_Source_Path>
/home/bortolaa/Project/GT/mario-master/docking/set505protein_struct_1_site_1_set505ligs_train

> <s_m_Source_File>
pocket_pv.maegz

> <i_m_Source_File_Index>
74

> <From>
www.bindingDB.org

> <BindingDB Reactant_set_id>
7073

> <Ligand InChI>
InChI=1S/C22H25ClFN5O2/c1-28-5-7-29(8-6-28)9-10-31-21-13-19-16(12-20(21)30-2)22(26-14-25-19)27-18-4-3-15(23)11-17(18)24/h3-4,11-14H,5-10H2,1-2H3,(H,25,26,27)

> <Ligand InChI Key>
GSFNVLNOUTVLFC-UHFFFAOYSA-N

> <BindingDB MonomerID>
4659

> <BindingDB Ligand Name>
4-Anilinoquinazoline 6::N-(4-Chloro-2-fluorophenyl)-6-methoxy-7-[2-(4-methylpiperazin-1-yl)ethoxy]quinazolin-4-amine

> <Target Name Assigned by Curator or DataSource>
Epidermal growth factor receptor

> <Target Source Organism According to Curator or DataSource>
Homo sapiens

> <Ki (nM)>


> <Kd (nM)>


> <EC50 (nM)>


> <kon (M-1-s-1)>


> <koff (s-1)>


> <pH>


> <Curation/DataSource>
Curated from the literature by BindingDB

> <Article DOI>
10.1021/jm011022e

> <PubChem AID>


> <Patent Number>


> <Authors>
Hennequin, LF; Stokes, ES; Thomas, AP; Johnstone, C; Ple, PA; Ogilvie, DJ; Dukes, M; Wedge, SR; Kendrew, J; Curwen, JO

> <Institution>
AstraZeneca

> <Link to Ligand in BindingDB>
http://www.bindingdb.org/bind/chemsearch/marvin/MolStructure.jsp?monomerid=4659

> <Link to Ligand-Target Pair in BindingDB>
http://www.bindingdb.org/jsp/dbsearch/PrimarySearch_ki.jsp?energyterm=kJ/mole&tag=r21&monomerid=4659&enzyme=Epidermal+growth+factor+receptor&column=ki&startPg=0&Increment=50&submit=Search

> <Ligand HET ID in PDB>


> <PDB ID(s) for Ligand-Target Complex>


> <PubChem CID>
4913175

> <PubChem SID>
8034320

> <ChEBI ID of Ligand>


> <ChEMBL ID of Ligand>


> <DrugBank ID of Ligand>


> <IUPHAR_GRAC ID of Ligand>


> <KEGG ID of Ligand>


> <ZINC ID of Ligand>
ZINC22450939

> <Number of Protein Chains in Target (>
1

> <BindingDB Target Chain Sequence>
MRPSGTAGAALLALLAALCPASRALEEKKVCQGTSNKLTQLGTFEDHFLSLQRMFNNCEVVLGNLEITYVQRNYDLSFLKTIQEVAGYVLIALNTVERIPLENLQIIRGNMYYENSYALAVLSNYDANKTGLKELPMRNLQEILHGAVRFSNNPALCNVESIQWRDIVSSDFLSNMSMDFQNHLGSCQKCDPSCPNGSCWGAGEENCQKLTKIICAQQCSGRCRGKSPSDCCHNQCAAGCTGPRESDCLVCRKFRDEATCKDTCPPLMLYNPTTYQMDVNPEGKYSFGATCVKKCPRNYVVTDHGSCVRACGADSYEMEEDGVRKCKKCEGPCRKVCNGIGIGEFKDSLSINATNIKHFKNCTSISGDLHILPVAFRGDSFTHTPPLDPQELDILKTVKEITGFLLIQAWPENRTDLHAFENLEIIRGRTKQHGQFSLAVVSLNITSLGLRSLKEISDGDVIISGNKNLCYANTINWKKLFGTSGQKTKIISNRGENSCKATGQVCHALCSPEGCWGPEPRDCVSCRNVSRGRECVDKCNLLEGEPREFVENSECIQCHPECLPQAMNITCTGRGPDNCIQCAHYIDGPHCVKTCPAGVMGENNTLVWKYADAGHVCHLCHPNCTYGCTGPGLEGCPTNGPKIPSIATGMVGALLLLLVVALGIGLFMRRRHIVRKRTLRRLLQERELVEPLTPSGEAPNQALLRILKETEFKKIKVLGSGAFGTVYKGLWIPEGEKVKIPVAIKELREATSPKANKEILDEAYVMASVDNPHVCRLLGICLTSTVQLITQLMPFGCLLDYVREHKDNIGSQYLLNWCVQIAKGMNYLEDRRLVHRDLAARNVLVKTPQHVKITDFGLAKLLGAEEKEYHAEGGKVPIKWMALESILHRIYTHQSDVWSYGVTVWELMTFGSKPYDGIPASEISSILEKGERLPQPPICTIDVYMIMVKCWMIDADSRPKFRELIIEFSKMARDPQRYLVIQGDERMHLPSPTDSNFYRALMDEEDMDDVVDADEYLIPQQGFFSSPSTSRTPLLSSLSATSNNSTVACIDRNGLQSCPIKEDSFLQRYSSDPTGALTEDSIDDTFLPVPEYINQSVPKRPAGSVQNPVYHNQPLNPAPSRDPHYQDPHSTAVGNPEYLNTVQPTCVNSTFDSPAHWAQKGSHQISLDNPDYQQDFFPKEAKPNGIFKGSTAENAEYLRVAPQSSEFIGA

> <PDB ID(s) of Target Chain>
1IVO,1M14,1M17,1MOX,1XKK,1Z9I,2GS2,2GS6,2ITW,2ITX,2ITY,2J5E,2J5F,2J6M,2RF9,2RGP,3B2V,3BEL,3GOP,3POZ,3QWQ,3VJO,3W2O,3W2P,3W2Q,3W2R,3W2S,3W32,3W33,4G5J,4I23,4JQ7,4JQ8,4JR3,4JRV,4KRO,4LI5,4RJ4,4RJ5,4RJ6,4RJ7,4RJ8,4TKS,4UIP,4UV7,4WKQ,4WRG,4ZAU,5C8K,5C8M,5C8N,5CAL,5CAN,5CAO,5CAP,5CAQ,5CAS,5CAU,5CAV,5EDP,5EDQ,5EDR,5EM5,5EM6,5EM7,5EM8,5FED,5GNK,5HCX,5HCY,5HCZ,5HIB,5HIC,5UGB,5WB7,5WB8,5Y25,6S89,6S8A

> <UniProt (SwissProt) Recommended Name of Target Chain>
Epidermal growth factor receptor

> <UniProt (SwissProt) Entry Name of Target Chain>
EGFR_HUMAN

> <UniProt (SwissProt) Primary ID of Target Chain>
P00533

> <UniProt (SwissProt) Secondary ID(s) of Target Chain>
O00688,O00732,P06268,Q14225,Q68GS5,Q92795,Q9BZS2,Q9GZX1,Q9H2C9,Q9H3C9,Q9UMD7,Q9UMD8,Q9UMG5

> <UniProt (SwissProt) Alternative ID(s) of Target Chain>


> <UniProt (TrEMBL) Submitted Name of Target Chain>


> <UniProt (TrEMBL) Entry Name of Target Chain>


> <UniProt (TrEMBL) Primary ID of Target Chain>


> <UniProt (TrEMBL) Secondary ID(s) of Target Chain>


> <UniProt (TrEMBL) Alternative ID(s) of Target Chain>


> <training label>
6.69897

> <i_lp_mmshare_version>
54117

> <s_epik_input>
W2NIXTFbY0hdYyhDbClbY0hdYyhGKWMxW05IXWMobltjSF1uMiljKGMyMylbY0hdYyhPW0NIM10pYyhbY0hdMylPW0NIMl1bQ0gyXU40W0NIMl1bQ0gyXU4oW0NIM10pW0NIMl1bQ0gyXTQ=

> <s_epik_cmdline>
J2VwaWtfcHl0aG9uJywgJy1waHQnLCAnMC4xJywgJy1waCcsICc3LjQnLCAnLXRuJywgJzgnLCAnLW1hJywgJzIwMCcsICctaW1hZScsICc8aW5maWxlLm1hZT4nLCAnLW9tYWUnLCAnPG91dGZpbGUubWFlPic=

> <r_lp_tautomer_probability>
0.999978000241998

> <r_epik_Ionization_Penalty>
  0.0924

> <r_epik_Ionization_Penalty_Charging>
  0.0884

> <r_epik_Ionization_Penalty_Neutral>
  0.0039

> <r_epik_State_Penalty>
  0.2085

> <r_epik_Charging_Adjusted_Penalty>
0.296899171783307

> <i_epik_Tot_Q>
1

> <i_epik_Tot_abs_Q>
1

> <i_f3d_flags>
0

> <s_lp_Force_Field>
OPLS_2005

> <r_lp_Energy>
32.841387

> <b_lp_Chiralities_Consistent>
1

> <s_lp_Variant>
4-Anilinoquinazoline-1

> <s_i_glide_gridfile>
struct_1_site_1

> <i_i_glide_lignum>
133

> <i_i_glide_rotatable_bonds>
7

> <r_i_docking_score>
-7.85466751156466

> <r_i_glide_ligand_efficiency>
-0.253376371340795

> <r_i_glide_ligand_efficiency_sa>
-0.795951629792016

> <r_i_glide_ligand_efficiency_ln>
-1.77146824050808

> <r_i_glide_gscore>
-8.06316751156466

> <r_i_glide_lipo>
-3.4848478257918

> <r_i_glide_hbond>
-0.32

> <r_i_glide_metal>
0

> <r_i_glide_rewards>
-1.50218759359485

> <r_i_glide_evdw>
-44.6721305847168

> <r_i_glide_ecoul>
-6.72474956512451

> <r_i_glide_erotb>
0.60138761692025

> <r_i_glide_esite>
-0.115200745093743

> <r_i_glide_emodel>
-56.4030933764052

> <r_i_glide_energy>
-51.3968801498413

> <r_i_glide_einternal>
5.68071317672729

> <i_i_glide_confnum>
18

> <i_i_glide_posenum>
279

> <r_i_glide_eff_state_penalty>
0.2085

> <IC50 (nM)>
200

> <PMID>
11881999

> <Temp C>
25

> <r_glide_shape_similarity>
0.791548728942871

> <s_m_subgroup_title>
505 training

> <s_m_subgroupid>
pocket_pv

> <b_m_subgroup_collapsed>
0

$$$$
BindingDB_50039333_mol_1
                    3D
 Schrodinger Suite 2021-2.
 56 59  0  0  1  0            999 V2000
   21.8039   -1.9079   55.1447 N   0  0  0  0  0  0
   23.0995   -1.7500   55.4167 C   0  0  0  0  0  0
   23.9427   -0.9046   54.8294 N   0  0  0  0  0  0
   23.4397   -0.0998   53.8678 C   0  0  0  0  0  0
   22.0742   -0.1736   53.4971 C   0  0  0  0  0  0
   21.5076    0.6536   52.4990 C   0  0  0  0  0  0
   20.1352    0.5458   52.1961 C   0  0  0  0  0  0
   19.3212   -0.3983   52.8542 C   0  0  0  0  0  0
   19.9019   -1.2307   53.8429 C   0  0  0  0  0  0
   21.2688   -1.1243   54.1821 C   0  0  0  0  0  0
   24.2863    0.8530   53.2749 N   0  0  0  0  0  0
   19.5034    1.4513   51.3946 O   0  0  0  0  0  0
   19.9503    1.6112   50.0656 C   0  0  0  0  0  0
   18.6246    1.9317   49.3482 C   0  0  0  0  0  0
   18.7398    2.6235   47.9879 C   0  0  0  0  0  0
   19.0132    4.1423   48.0897 C   0  0  0  0  0  0
   21.4427    4.3304   47.3216 C   0  0  0  0  0  0
   22.6430    4.6640   47.8220 N   0  0  0  0  0  0
   22.3923    5.0553   49.1412 C   0  0  0  0  0  0
   21.0412    4.9454   49.3999 C   0  0  0  0  0  0
   20.4385    4.4496   48.2358 N   0  0  0  0  0  0
   21.2837    3.8900   45.9300 N   0  3  0  0  0  0
   22.2891    3.5013   45.3352 O   0  0  0  0  0  0
   20.1648    3.9111   45.4135 O   0  5  0  0  0  0
   17.9830   -0.4116   52.4983 O   0  0  0  0  0  0
   17.0710   -1.1652   53.2837 C   0  0  0  0  0  0
   25.6829    0.9529   53.3419 C   0  0  0  0  0  0
   26.5129   -0.1908   53.3328 C   0  0  0  0  0  0
   27.9153   -0.0519   53.3822 C   0  0  0  0  0  0
   28.5017    1.2300   53.4402 C   0  0  0  0  0  0
   27.6765    2.3713   53.4281 C   0  0  0  0  0  0
   26.2741    2.2355   53.3703 C   0  0  0  0  0  0
   28.7428   -1.2432   53.3677 C   0  0  0  0  0  0
   29.3723   -2.2890   53.3586 C   0  0  0  0  0  0
   23.5146   -2.3977   56.1733 H   0  0  0  0  0  0
   22.0940    1.4043   51.9919 H   0  0  0  0  0  0
   19.3036   -1.9505   54.3790 H   0  0  0  0  0  0
   23.8189    1.6285   52.8297 H   0  0  0  0  0  0
   20.6707    2.4226   50.0243 H   0  0  0  0  0  0
   20.4184    0.7128   49.6612 H   0  0  0  0  0  0
   18.0686    0.9987   49.2330 H   0  0  0  0  0  0
   18.0000    2.5557   49.9908 H   0  0  0  0  0  0
   19.4838    2.1165   47.3771 H   0  0  0  0  0  0
   17.7915    2.4893   47.4679 H   0  0  0  0  0  0
   18.6397    4.6542   47.2037 H   0  0  0  0  0  0
   18.4651    4.5811   48.9250 H   0  0  0  0  0  0
   23.1925    5.3826   49.7903 H   0  0  0  0  0  0
   20.4758    5.1547   50.2969 H   0  0  0  0  0  0
   16.0542   -0.9878   52.9337 H   0  0  0  0  0  0
   17.2693   -2.2346   53.1992 H   0  0  0  0  0  0
   17.1159   -0.8764   54.3343 H   0  0  0  0  0  0
   26.0771   -1.1784   53.2784 H   0  0  0  0  0  0
   29.5769    1.3440   53.4817 H   0  0  0  0  0  0
   28.1163    3.3576   53.4615 H   0  0  0  0  0  0
   25.6623    3.1272   53.3611 H   0  0  0  0  0  0
   29.8883   -3.2228   53.3597 H   0  0  0  0  0  0
  1  2  2  0  0  0
  1 10  1  0  0  0
  2  3  1  0  0  0
  2 35  1  0  0  0
  3  4  2  0  0  0
  4  5  1  0  0  0
  4 11  1  0  0  0
  5  6  2  0  0  0
  5 10  1  0  0  0
  6  7  1  0  0  0
  6 36  1  0  0  0
  7  8  2  0  0  0
  7 12  1  0  0  0
  8  9  1  0  0  0
  8 25  1  0  0  0
  9 10  2  0  0  0
  9 37  1  0  0  0
 11 27  1  0  0  0
 11 38  1  0  0  0
 12 13  1  0  0  0
 13 14  1  0  0  0
 13 39  1  0  0  0
 13 40  1  0  0  0
 14 15  1  0  0  0
 14 41  1  0  0  0
 14 42  1  0  0  0
 15 16  1  0  0  0
 15 43  1  0  0  0
 15 44  1  0  0  0
 16 21  1  0  0  0
 16 45  1  0  0  0
 16 46  1  0  0  0
 17 18  2  0  0  0
 17 21  1  0  0  0
 17 22  1  0  0  0
 18 19  1  0  0  0
 19 20  2  0  0  0
 19 47  1  0  0  0
 20 21  1  0  0  0
 20 48  1  0  0  0
 22 23  2  0  0  0
 22 24  1  0  0  0
 25 26  1  0  0  0
 26 49  1  0  0  0
 26 50  1  0  0  0
 26 51  1  0  0  0
 27 28  2  0  0  0
 27 32  1  0  0  0
 28 29  1  0  0  0
 28 52  1  0  0  0
 29 30  2  0  0  0
 29 33  1  0  0  0
 30 31  1  0  0  0
 30 53  1  0  0  0
 31 32  2  0  0  0
 31 54  1  0  0  0
 32 55  1  0  0  0
 33 34  3  0  0  0
 34 56  1  0  0  0
M  CHG  2  22   1  24  -1
M  END
> <s_m_entry_id>
264

> <s_m_entry_name>
pocket_pv.75

> <s_m_Source_Path>
/home/bortolaa/Project/GT/mario-master/docking/set505protein_struct_1_site_1_set505ligs_train

> <s_m_Source_File>
pocket_pv.maegz

> <i_m_Source_File_Index>
75

> <From>
www.bindingDB.org

> <BindingDB Reactant_set_id>
50258414

> <Ligand InChI>
InChI=1S/C24H22N6O4/c1-3-17-7-6-8-18(13-17)28-23-19-14-22(21(33-2)15-20(19)26-16-27-23)34-12-5-4-10-29-11-9-25-24(29)30(31)32/h1,6-9,11,13-16H,4-5,10,12H2,2H3,(H,26,27,28)

> <Ligand InChI Key>
MZKVFCHPEMRDCD-UHFFFAOYSA-N

> <BindingDB MonomerID>
50039333

> <BindingDB Ligand Name>
CHEMBL3355880

> <Target Name Assigned by Curator or DataSource>
Epidermal growth factor receptor

> <Target Source Organism According to Curator or DataSource>
Homo sapiens

> <Ki (nM)>


> <Kd (nM)>


> <EC50 (nM)>


> <kon (M-1-s-1)>


> <koff (s-1)>


> <pH>


> <Temp C>


> <Curation/DataSource>
ChEMBL

> <Article DOI>
10.1016/j.ejmech.2014.11.010

> <PubChem AID>


> <Patent Number>


> <Authors>
Cheng, W; Zhu, S; Ma, X; Qiu, N; Peng, P; Sheng, R; Hu, Y

> <Institution>
Zhejiang University

> <Link to Ligand in BindingDB>
http://www.bindingdb.org/bind/chemsearch/marvin/MolStructure.jsp?monomerid=50039333

> <Link to Ligand-Target Pair in BindingDB>
http://www.bindingdb.org/jsp/dbsearch/PrimarySearch_ki.jsp?energyterm=kJ/mole&tag=r21&monomerid=50039333&enzyme=Epidermal+growth+factor+receptor&column=ki&startPg=0&Increment=50&submit=Search

> <Ligand HET ID in PDB>


> <PDB ID(s) for Ligand-Target Complex>


> <PubChem CID>
118721149

> <PubChem SID>
313067386

> <ChEBI ID of Ligand>


> <ChEMBL ID of Ligand>
CHEMBL3355880

> <DrugBank ID of Ligand>


> <IUPHAR_GRAC ID of Ligand>


> <KEGG ID of Ligand>


> <ZINC ID of Ligand>


> <Number of Protein Chains in Target (>
1

> <BindingDB Target Chain Sequence>
MRPSGTAGAALLALLAALCPASRALEEKKVCQGTSNKLTQLGTFEDHFLSLQRMFNNCEVVLGNLEITYVQRNYDLSFLKTIQEVAGYVLIALNTVERIPLENLQIIRGNMYYENSYALAVLSNYDANKTGLKELPMRNLQEILHGAVRFSNNPALCNVESIQWRDIVSSDFLSNMSMDFQNHLGSCQKCDPSCPNGSCWGAGEENCQKLTKIICAQQCSGRCRGKSPSDCCHNQCAAGCTGPRESDCLVCRKFRDEATCKDTCPPLMLYNPTTYQMDVNPEGKYSFGATCVKKCPRNYVVTDHGSCVRACGADSYEMEEDGVRKCKKCEGPCRKVCNGIGIGEFKDSLSINATNIKHFKNCTSISGDLHILPVAFRGDSFTHTPPLDPQELDILKTVKEITGFLLIQAWPENRTDLHAFENLEIIRGRTKQHGQFSLAVVSLNITSLGLRSLKEISDGDVIISGNKNLCYANTINWKKLFGTSGQKTKIISNRGENSCKATGQVCHALCSPEGCWGPEPRDCVSCRNVSRGRECVDKCNLLEGEPREFVENSECIQCHPECLPQAMNITCTGRGPDNCIQCAHYIDGPHCVKTCPAGVMGENNTLVWKYADAGHVCHLCHPNCTYGCTGPGLEGCPTNGPKIPSIATGMVGALLLLLVVALGIGLFMRRRHIVRKRTLRRLLQERELVEPLTPSGEAPNQALLRILKETEFKKIKVLGSGAFGTVYKGLWIPEGEKVKIPVAIKELREATSPKANKEILDEAYVMASVDNPHVCRLLGICLTSTVQLITQLMPFGCLLDYVREHKDNIGSQYLLNWCVQIAKGMNYLEDRRLVHRDLAARNVLVKTPQHVKITDFGLAKLLGAEEKEYHAEGGKVPIKWMALESILHRIYTHQSDVWSYGVTVWELMTFGSKPYDGIPASEISSILEKGERLPQPPICTIDVYMIMVKCWMIDADSRPKFRELIIEFSKMARDPQRYLVIQGDERMHLPSPTDSNFYRALMDEEDMDDVVDADEYLIPQQGFFSSPSTSRTPLLSSLSATSNNSTVACIDRNGLQSCPIKEDSFLQRYSSDPTGALTEDSIDDTFLPVPEYINQSVPKRPAGSVQNPVYHNQPLNPAPSRDPHYQDPHSTAVGNPEYLNTVQPTCVNSTFDSPAHWAQKGSHQISLDNPDYQQDFFPKEAKPNGIFKGSTAENAEYLRVAPQSSEFIGA

> <PDB ID(s) of Target Chain>
1IVO,1M14,1M17,1MOX,1XKK,1Z9I,2GS2,2GS6,2ITW,2ITX,2ITY,2J5E,2J5F,2J6M,2RF9,2RGP,3B2V,3BEL,3GOP,3POZ,3QWQ,3VJO,3W2O,3W2P,3W2Q,3W2R,3W2S,3W32,3W33,4G5J,4I23,4JQ7,4JQ8,4JR3,4JRV,4KRO,4LI5,4RJ4,4RJ5,4RJ6,4RJ7,4RJ8,4TKS,4UIP,4UV7,4WKQ,4WRG,4ZAU,5C8K,5C8M,5C8N,5CAL,5CAN,5CAO,5CAP,5CAQ,5CAS,5CAU,5CAV,5EDP,5EDQ,5EDR,5EM5,5EM6,5EM7,5EM8,5FED,5GNK,5HCX,5HCY,5HCZ,5HIB,5HIC,5UGB,5WB7,5WB8,5Y25,6S89,6S8A

> <UniProt (SwissProt) Recommended Name of Target Chain>
Epidermal growth factor receptor

> <UniProt (SwissProt) Entry Name of Target Chain>
EGFR_HUMAN

> <UniProt (SwissProt) Primary ID of Target Chain>
P00533

> <UniProt (SwissProt) Secondary ID(s) of Target Chain>
O00688,O00732,P06268,Q14225,Q68GS5,Q92795,Q9BZS2,Q9GZX1,Q9H2C9,Q9H3C9,Q9UMD7,Q9UMD8,Q9UMG5

> <UniProt (SwissProt) Alternative ID(s) of Target Chain>


> <UniProt (TrEMBL) Submitted Name of Target Chain>


> <UniProt (TrEMBL) Entry Name of Target Chain>


> <UniProt (TrEMBL) Primary ID of Target Chain>


> <UniProt (TrEMBL) Secondary ID(s) of Target Chain>


> <UniProt (TrEMBL) Alternative ID(s) of Target Chain>


> <training label>
9.25181

> <i_lp_mmshare_version>
54117

> <s_epik_input>
W2NIXTFbY0hdW2NIXWMoQyNbQ0hdKVtjSF1jMVtOSF1jMm5bY0hdbmMoYzIzKVtjSF1jKE9bQ0gzXSljKFtjSF0zKU9bQ0gyXVtDSDJdW0NIMl1bQ0gyXW40W2NIXVtjSF1uYzRbTitdKD1PKVtPLV0=

> <s_epik_cmdline>
J2VwaWtfcHl0aG9uJywgJy1waHQnLCAnMC4xJywgJy1waCcsICc3LjQnLCAnLXRuJywgJzgnLCAnLW1hJywgJzIwMCcsICctaW1hZScsICc8aW5maWxlLm1hZT4nLCAnLW9tYWUnLCAnPG91dGZpbGUubWFlPic=

> <r_lp_tautomer_probability>
1

> <r_epik_Ionization_Penalty>
  0.0011

> <r_epik_Ionization_Penalty_Charging>
  0.0000

> <r_epik_Ionization_Penalty_Neutral>
  0.0011

> <r_epik_State_Penalty>
  0.0000

> <r_epik_Charging_Adjusted_Penalty>
9.39119309058445e-09

> <i_epik_Tot_Q>
0

> <i_epik_Tot_abs_Q>
2

> <i_f3d_flags>
0

> <s_lp_Force_Field>
OPLS_2005

> <r_lp_Energy>
33.022676

> <b_lp_Chiralities_Consistent>
1

> <s_lp_Variant>
BindingDB_50039333_mol_1-1

> <s_i_glide_gridfile>
struct_1_site_1

> <i_i_glide_lignum>
285

> <i_i_glide_rotatable_bonds>
11

> <r_i_docking_score>
-7.85375894736894

> <r_i_glide_ligand_efficiency>
-0.230992910216733

> <r_i_glide_ligand_efficiency_sa>
-0.748327357069936

> <r_i_glide_ligand_efficiency_ln>
-1.73511564195054

> <r_i_glide_gscore>
-7.85375894736894

> <r_i_glide_lipo>
-3.22458035670382

> <r_i_glide_hbond>
-0.32

> <r_i_glide_metal>
0

> <r_i_glide_rewards>
-1.53311798727188

> <r_i_glide_evdw>
-49.8101806640625

> <r_i_glide_ecoul>
-7.60863876342773

> <r_i_glide_erotb>
0.8611901707322

> <r_i_glide_esite>
-0.00544592640815419

> <r_i_glide_emodel>
-59.1251293143788

> <r_i_glide_energy>
-57.4188194274902

> <r_i_glide_einternal>
6.39969730377197

> <i_i_glide_confnum>
182

> <i_i_glide_posenum>
194

> <r_i_glide_eff_state_penalty>
0

> <IC50 (nM)>
0.56

> <PMID>
25462282

> <r_glide_shape_similarity>
0.758461892604828

> <s_m_subgroup_title>
505 training

> <s_m_subgroupid>
pocket_pv

> <b_m_subgroup_collapsed>
0

$$$$
BindingDB_50039334_mol_1
                    3D
 Schrodinger Suite 2021-2.
 59 62  0  0  1  0            999 V2000
   21.8355   -1.8814   55.1762 N   0  0  0  0  0  0
   23.1288   -1.7040   55.4436 C   0  0  0  0  0  0
   23.9576   -0.8666   54.8330 N   0  0  0  0  0  0
   23.4431   -0.0809   53.8647 C   0  0  0  0  0  0
   22.0778   -0.1589   53.5013 C   0  0  0  0  0  0
   21.4981    0.6379   52.4804 C   0  0  0  0  0  0
   20.1323    0.4709   52.1369 C   0  0  0  0  0  0
   19.3419   -0.4654   52.8565 C   0  0  0  0  0  0
   19.9340   -1.2272   53.8930 C   0  0  0  0  0  0
   21.2938   -1.1072   54.2093 C   0  0  0  0  0  0
   24.2883    0.8586   53.2573 N   0  0  0  0  0  0
   19.5063    1.1381   51.1032 O   0  0  0  0  0  0
   20.2326    1.9886   50.2175 C   0  0  0  0  0  0
   19.3308    2.3918   49.0209 C   0  0  0  0  0  0
   17.9686    3.0220   49.4138 C   0  0  0  0  0  0
   16.8913    2.0159   49.9235 C   0  0  0  0  0  0
   15.9994    2.5902   51.0689 C   0  0  0  0  0  0
   14.3099    1.8605   52.8554 C   0  0  0  0  0  0
   13.8064    0.7423   53.3944 N   0  0  0  0  0  0
   14.3927   -0.3003   52.6870 C   0  0  0  0  0  0
   15.2374    0.2152   51.7257 C   0  0  0  0  0  0
   15.2105    1.6105   51.8513 N   0  0  0  0  0  0
   13.9238    3.1952   53.3613 N   0  3  0  0  0  0
   12.9294    3.2686   54.0899 O   0  0  0  0  0  0
   14.6032    4.1725   53.0442 O   0  5  0  0  0  0
   18.0155   -0.6284   52.5059 O   0  0  0  0  0  0
   17.3538   -1.7894   53.0134 C   0  0  0  0  0  0
   25.6848    0.9563   53.3369 C   0  0  0  0  0  0
   26.5142   -0.1898   53.3322 C   0  0  0  0  0  0
   27.9164   -0.0497   53.3815 C   0  0  0  0  0  0
   28.5043    1.2314   53.4410 C   0  0  0  0  0  0
   27.6783    2.3742   53.4296 C   0  0  0  0  0  0
   26.2757    2.2395   53.3691 C   0  0  0  0  0  0
   28.7428   -1.2400   53.3670 C   0  0  0  0  0  0
   29.3713   -2.2855   53.3602 C   0  0  0  0  0  0
   23.5645   -2.3429   56.1979 H   0  0  0  0  0  0
   22.1059    1.3428   51.9341 H   0  0  0  0  0  0
   19.3618   -1.9263   54.4839 H   0  0  0  0  0  0
   23.8221    1.6409   52.8240 H   0  0  0  0  0  0
   20.5463    2.8749   50.7644 H   0  0  0  0  0  0
   21.1277    1.4886   49.8401 H   0  0  0  0  0  0
   19.8831    3.1046   48.4071 H   0  0  0  0  0  0
   19.1583    1.5346   48.3794 H   0  0  0  0  0  0
   18.1599    3.7847   50.1694 H   0  0  0  0  0  0
   17.5571    3.5567   48.5574 H   0  0  0  0  0  0
   16.2656    1.6848   49.0898 H   0  0  0  0  0  0
   17.3726    1.1067   50.2790 H   0  0  0  0  0  0
   16.6358    3.1186   51.7802 H   0  0  0  0  0  0
   15.3166    3.3342   50.6531 H   0  0  0  0  0  0
   14.1527   -1.3270   52.9194 H   0  0  0  0  0  0
   15.8507   -0.2873   50.9914 H   0  0  0  0  0  0
   16.4598   -2.0193   52.4386 H   0  0  0  0  0  0
   17.9708   -2.6845   52.9382 H   0  0  0  0  0  0
   17.0683   -1.6455   54.0557 H   0  0  0  0  0  0
   26.0820   -1.1796   53.2770 H   0  0  0  0  0  0
   29.5804    1.3393   53.4791 H   0  0  0  0  0  0
   28.1101    3.3642   53.4633 H   0  0  0  0  0  0
   25.6621    3.1294   53.3554 H   0  0  0  0  0  0
   29.8862   -3.2191   53.3621 H   0  0  0  0  0  0
  1  2  2  0  0  0
  1 10  1  0  0  0
  2  3  1  0  0  0
  2 36  1  0  0  0
  3  4  2  0  0  0
  4  5  1  0  0  0
  4 11  1  0  0  0
  5  6  2  0  0  0
  5 10  1  0  0  0
  6  7  1  0  0  0
  6 37  1  0  0  0
  7  8  2  0  0  0
  7 12  1  0  0  0
  8  9  1  0  0  0
  8 26  1  0  0  0
  9 10  2  0  0  0
  9 38  1  0  0  0
 11 28  1  0  0  0
 11 39  1  0  0  0
 12 13  1  0  0  0
 13 14  1  0  0  0
 13 40  1  0  0  0
 13 41  1  0  0  0
 14 15  1  0  0  0
 14 42  1  0  0  0
 14 43  1  0  0  0
 15 16  1  0  0  0
 15 44  1  0  0  0
 15 45  1  0  0  0
 16 17  1  0  0  0
 16 46  1  0  0  0
 16 47  1  0  0  0
 17 22  1  0  0  0
 17 48  1  0  0  0
 17 49  1  0  0  0
 18 19  2  0  0  0
 18 22  1  0  0  0
 18 23  1  0  0  0
 19 20  1  0  0  0
 20 21  2  0  0  0
 20 50  1  0  0  0
 21 22  1  0  0  0
 21 51  1  0  0  0
 23 24  2  0  0  0
 23 25  1  0  0  0
 26 27  1  0  0  0
 27 52  1  0  0  0
 27 53  1  0  0  0
 27 54  1  0  0  0
 28 29  2  0  0  0
 28 33  1  0  0  0
 29 30  1  0  0  0
 29 55  1  0  0  0
 30 31  2  0  0  0
 30 34  1  0  0  0
 31 32  1  0  0  0
 31 56  1  0  0  0
 32 33  2  0  0  0
 32 57  1  0  0  0
 33 58  1  0  0  0
 34 35  3  0  0  0
 35 59  1  0  0  0
M  CHG  2  23   1  25  -1
M  END
> <s_m_entry_id>
265

> <s_m_entry_name>
pocket_pv.76

> <s_m_Source_Path>
/home/bortolaa/Project/GT/mario-master/docking/set505protein_struct_1_site_1_set505ligs_train

> <s_m_Source_File>
pocket_pv.maegz

> <i_m_Source_File_Index>
76

> <From>
www.bindingDB.org

> <BindingDB Reactant_set_id>
50258416

> <Ligand InChI>
InChI=1S/C25H24N6O4/c1-3-18-8-7-9-19(14-18)29-24-20-15-23(22(34-2)16-21(20)27-17-28-24)35-13-6-4-5-11-30-12-10-26-25(30)31(32)33/h1,7-10,12,14-17H,4-6,11,13H2,2H3,(H,27,28,29)

> <Ligand InChI Key>
SUUQUGFBBWLFFH-UHFFFAOYSA-N

> <BindingDB MonomerID>
50039334

> <BindingDB Ligand Name>
CHEMBL3355881

> <Target Name Assigned by Curator or DataSource>
Epidermal growth factor receptor

> <Target Source Organism According to Curator or DataSource>
Homo sapiens

> <Ki (nM)>


> <Kd (nM)>


> <EC50 (nM)>


> <kon (M-1-s-1)>


> <koff (s-1)>


> <pH>


> <Temp C>


> <Curation/DataSource>
ChEMBL

> <Article DOI>
10.1016/j.ejmech.2014.11.010

> <PubChem AID>


> <Patent Number>


> <Authors>
Cheng, W; Zhu, S; Ma, X; Qiu, N; Peng, P; Sheng, R; Hu, Y

> <Institution>
Zhejiang University

> <Link to Ligand in BindingDB>
http://www.bindingdb.org/bind/chemsearch/marvin/MolStructure.jsp?monomerid=50039334

> <Link to Ligand-Target Pair in BindingDB>
http://www.bindingdb.org/jsp/dbsearch/PrimarySearch_ki.jsp?energyterm=kJ/mole&tag=r21&monomerid=50039334&enzyme=Epidermal+growth+factor+receptor&column=ki&startPg=0&Increment=50&submit=Search

> <Ligand HET ID in PDB>


> <PDB ID(s) for Ligand-Target Complex>


> <PubChem CID>
118721150

> <PubChem SID>
313067387

> <ChEBI ID of Ligand>


> <ChEMBL ID of Ligand>
CHEMBL3355881

> <DrugBank ID of Ligand>


> <IUPHAR_GRAC ID of Ligand>


> <KEGG ID of Ligand>


> <ZINC ID of Ligand>


> <Number of Protein Chains in Target (>
1

> <BindingDB Target Chain Sequence>
MRPSGTAGAALLALLAALCPASRALEEKKVCQGTSNKLTQLGTFEDHFLSLQRMFNNCEVVLGNLEITYVQRNYDLSFLKTIQEVAGYVLIALNTVERIPLENLQIIRGNMYYENSYALAVLSNYDANKTGLKELPMRNLQEILHGAVRFSNNPALCNVESIQWRDIVSSDFLSNMSMDFQNHLGSCQKCDPSCPNGSCWGAGEENCQKLTKIICAQQCSGRCRGKSPSDCCHNQCAAGCTGPRESDCLVCRKFRDEATCKDTCPPLMLYNPTTYQMDVNPEGKYSFGATCVKKCPRNYVVTDHGSCVRACGADSYEMEEDGVRKCKKCEGPCRKVCNGIGIGEFKDSLSINATNIKHFKNCTSISGDLHILPVAFRGDSFTHTPPLDPQELDILKTVKEITGFLLIQAWPENRTDLHAFENLEIIRGRTKQHGQFSLAVVSLNITSLGLRSLKEISDGDVIISGNKNLCYANTINWKKLFGTSGQKTKIISNRGENSCKATGQVCHALCSPEGCWGPEPRDCVSCRNVSRGRECVDKCNLLEGEPREFVENSECIQCHPECLPQAMNITCTGRGPDNCIQCAHYIDGPHCVKTCPAGVMGENNTLVWKYADAGHVCHLCHPNCTYGCTGPGLEGCPTNGPKIPSIATGMVGALLLLLVVALGIGLFMRRRHIVRKRTLRRLLQERELVEPLTPSGEAPNQALLRILKETEFKKIKVLGSGAFGTVYKGLWIPEGEKVKIPVAIKELREATSPKANKEILDEAYVMASVDNPHVCRLLGICLTSTVQLITQLMPFGCLLDYVREHKDNIGSQYLLNWCVQIAKGMNYLEDRRLVHRDLAARNVLVKTPQHVKITDFGLAKLLGAEEKEYHAEGGKVPIKWMALESILHRIYTHQSDVWSYGVTVWELMTFGSKPYDGIPASEISSILEKGERLPQPPICTIDVYMIMVKCWMIDADSRPKFRELIIEFSKMARDPQRYLVIQGDERMHLPSPTDSNFYRALMDEEDMDDVVDADEYLIPQQGFFSSPSTSRTPLLSSLSATSNNSTVACIDRNGLQSCPIKEDSFLQRYSSDPTGALTEDSIDDTFLPVPEYINQSVPKRPAGSVQNPVYHNQPLNPAPSRDPHYQDPHSTAVGNPEYLNTVQPTCVNSTFDSPAHWAQKGSHQISLDNPDYQQDFFPKEAKPNGIFKGSTAENAEYLRVAPQSSEFIGA

> <PDB ID(s) of Target Chain>
1IVO,1M14,1M17,1MOX,1XKK,1Z9I,2GS2,2GS6,2ITW,2ITX,2ITY,2J5E,2J5F,2J6M,2RF9,2RGP,3B2V,3BEL,3GOP,3POZ,3QWQ,3VJO,3W2O,3W2P,3W2Q,3W2R,3W2S,3W32,3W33,4G5J,4I23,4JQ7,4JQ8,4JR3,4JRV,4KRO,4LI5,4RJ4,4RJ5,4RJ6,4RJ7,4RJ8,4TKS,4UIP,4UV7,4WKQ,4WRG,4ZAU,5C8K,5C8M,5C8N,5CAL,5CAN,5CAO,5CAP,5CAQ,5CAS,5CAU,5CAV,5EDP,5EDQ,5EDR,5EM5,5EM6,5EM7,5EM8,5FED,5GNK,5HCX,5HCY,5HCZ,5HIB,5HIC,5UGB,5WB7,5WB8,5Y25,6S89,6S8A

> <UniProt (SwissProt) Recommended Name of Target Chain>
Epidermal growth factor receptor

> <UniProt (SwissProt) Entry Name of Target Chain>
EGFR_HUMAN

> <UniProt (SwissProt) Primary ID of Target Chain>
P00533

> <UniProt (SwissProt) Secondary ID(s) of Target Chain>
O00688,O00732,P06268,Q14225,Q68GS5,Q92795,Q9BZS2,Q9GZX1,Q9H2C9,Q9H3C9,Q9UMD7,Q9UMD8,Q9UMG5

> <UniProt (SwissProt) Alternative ID(s) of Target Chain>


> <UniProt (TrEMBL) Submitted Name of Target Chain>


> <UniProt (TrEMBL) Entry Name of Target Chain>


> <UniProt (TrEMBL) Primary ID of Target Chain>


> <UniProt (TrEMBL) Secondary ID(s) of Target Chain>


> <UniProt (TrEMBL) Alternative ID(s) of Target Chain>


> <training label>
9.3098

> <i_lp_mmshare_version>
54117

> <s_epik_input>
W2NIXTFbY0hdW2NIXWMoQyNbQ0hdKVtjSF1jMVtOSF1jMm5bY0hdbmMoYzIzKVtjSF1jKE9bQ0gzXSljKFtjSF0zKU9bQ0gyXVtDSDJdW0NIMl1bQ0gyXVtDSDJdbjRbY0hdW2NIXW5jNFtOK10oPU8pW08tXQ==

> <s_epik_cmdline>
J2VwaWtfcHl0aG9uJywgJy1waHQnLCAnMC4xJywgJy1waCcsICc3LjQnLCAnLXRuJywgJzgnLCAnLW1hJywgJzIwMCcsICctaW1hZScsICc8aW5maWxlLm1hZT4nLCAnLW9tYWUnLCAnPG91dGZpbGUubWFlPic=

> <r_lp_tautomer_probability>
1

> <r_epik_Ionization_Penalty>
  0.0005

> <r_epik_Ionization_Penalty_Charging>
  0.0000

> <r_epik_Ionization_Penalty_Neutral>
  0.0005

> <r_epik_State_Penalty>
  0.0000

> <r_epik_Charging_Adjusted_Penalty>
9.70657127518667e-09

> <i_epik_Tot_Q>
0

> <i_epik_Tot_abs_Q>
2

> <i_f3d_flags>
0

> <s_lp_Force_Field>
OPLS_2005

> <r_lp_Energy>
29.032616

> <b_lp_Chiralities_Consistent>
1

> <s_lp_Variant>
BindingDB_50039334_mol_1-1

> <s_i_glide_gridfile>
struct_1_site_1

> <i_i_glide_lignum>
287

> <i_i_glide_rotatable_bonds>
12

> <r_i_docking_score>
-7.84664879550899

> <r_i_glide_ligand_efficiency>
-0.224189965585971

> <r_i_glide_ligand_efficiency_sa>
-0.733340242641517

> <r_i_glide_ligand_efficiency_ln>
-1.72251355760145

> <r_i_glide_gscore>
-7.84664879550899

> <r_i_glide_lipo>
-3.26755448577288

> <r_i_glide_hbond>
-0.32

> <r_i_glide_metal>
0

> <r_i_glide_rewards>
-1.72142662711

> <r_i_glide_evdw>
-53.1405754089355

> <r_i_glide_ecoul>
-5.24241733551025

> <r_i_glide_erotb>
0.905723688147199

> <r_i_glide_esite>
0

> <r_i_glide_emodel>
-64.832067938971

> <r_i_glide_energy>
-58.3829927444458

> <r_i_glide_einternal>
7.0041127204895

> <i_i_glide_confnum>
682

> <i_i_glide_posenum>
38

> <r_i_glide_eff_state_penalty>
0

> <IC50 (nM)>
0.49

> <PMID>
25462282

> <r_glide_shape_similarity>
0.799084186553955

> <s_m_subgroup_title>
505 training

> <s_m_subgroupid>
pocket_pv

> <b_m_subgroup_collapsed>
0

$$$$
4-Anilinoquinazoline
                    3D
 Schrodinger Suite 2021-2.
 58 61  0  0  1  0            999 V2000
   23.4471   -0.1005   53.8758 C   0  0  0  0  0  0
   23.0236   -1.7338   55.4298 C   0  0  0  0  0  0
   21.2297   -1.0505   54.1595 C   0  0  0  0  0  0
   22.0842   -0.1279   53.4841 C   0  0  0  0  0  0
   21.5868    0.6901   52.4441 C   0  0  0  0  0  0
   20.2362    0.5875   52.0410 C   0  0  0  0  0  0
   19.3784   -0.3092   52.7094 C   0  0  0  0  0  0
   19.8652   -1.1164   53.7748 C   0  0  0  0  0  0
   23.8969   -0.9150   54.8573 N   0  0  0  0  0  0
   21.7276   -1.8520   55.1316 N   0  0  0  0  0  0
   25.7914    0.4524   53.2204 C   0  0  0  0  0  0
   28.1400    1.0966   53.5491 C   0  0  0  0  0  0
   26.7717    1.4535   53.4399 C   0  0  0  0  0  0
   26.2132   -0.8830   52.9986 C   0  0  0  0  0  0
   28.5166   -0.2658   53.4377 C   0  0  0  0  0  0
   26.3924    2.7393   53.6118 F   0  0  0  0  0  0
   24.4110    0.7351   53.2704 N   0  0  0  0  0  0
   24.1127    1.6510   52.9602 H   0  0  0  0  0  0
   18.1224   -0.3659   52.1544 O   0  0  0  0  0  0
   19.6813    1.3192   51.0047 O   0  0  0  0  0  0
   20.5439    1.8598   50.0076 C   0  0  0  0  0  0
   16.9951   -0.7591   52.8984 C   0  0  0  0  0  0
   27.5639   -1.2473   53.1247 C   0  0  0  0  0  0
   15.8310   -0.2122   52.0434 C   0  0  0  0  0  0
   14.4161   -0.6278   52.5110 C   0  0  1  0  0  0
   13.0206    1.1562   51.2685 C   0  0  0  0  0  0
   13.6357    1.5551   53.6425 C   0  0  0  0  0  0
   13.9747    0.0524   53.8236 C   0  0  0  0  0  0
   13.3391   -0.3566   51.4266 C   0  0  0  0  0  0
   12.6119    1.7749   52.5707 N   0  3  1  0  0  0
   12.2356    3.2134   52.4247 C   0  0  0  0  0  0
   30.2888   -0.8534   53.7681 Br  0  0  0  0  0  0
   23.4084   -2.3913   56.1931 H   0  0  0  0  0  0
   22.2495    1.3774   51.9399 H   0  0  0  0  0  0
   19.2113   -1.8148   54.2737 H   0  0  0  0  0  0
   28.8814    1.8498   53.7722 H   0  0  0  0  0  0
   25.4885   -1.6577   52.7927 H   0  0  0  0  0  0
   19.9519    2.2149   49.1635 H   0  0  0  0  0  0
   21.1048    2.7094   50.4005 H   0  0  0  0  0  0
   21.2421    1.1099   49.6319 H   0  0  0  0  0  0
   17.0032   -0.3290   53.8957 H   0  0  0  0  0  0
   16.9568   -1.8445   52.9885 H   0  0  0  0  0  0
   27.8568   -2.2832   53.0260 H   0  0  0  0  0  0
   15.9729   -0.5806   51.0265 H   0  0  0  0  0  0
   15.9110    0.8722   51.9746 H   0  0  0  0  0  0
   14.4437   -1.7046   52.6843 H   0  0  0  0  0  0
   13.8910    1.6828   50.8745 H   0  0  0  0  0  0
   12.2207    1.2864   50.5371 H   0  0  0  0  0  0
   14.5377    2.1228   53.4103 H   0  0  0  0  0  0
   13.2493    1.9587   54.5773 H   0  0  0  0  0  0
   14.7540   -0.0659   54.5695 H   0  0  0  0  0  0
   13.1010   -0.4650   54.2219 H   0  0  0  0  0  0
   12.4228   -0.8850   51.6945 H   0  0  0  0  0  0
   13.6524   -0.7729   50.4680 H   0  0  0  0  0  0
   13.1000    3.8215   52.1564 H   0  0  0  0  0  0
   11.4837    3.3436   51.6470 H   0  0  0  0  0  0
   11.8187    3.6066   53.3523 H   0  0  0  0  0  0
   11.7655    1.2935   52.8682 H   0  0  0  0  0  0
  1  4  2  0  0  0
  1  9  1  0  0  0
  1 17  1  0  0  0
  2  9  2  0  0  0
  2 10  1  0  0  0
  2 33  1  0  0  0
  3  4  1  0  0  0
  3  8  1  0  0  0
  3 10  2  0  0  0
  4  5  1  0  0  0
  5  6  2  0  0  0
  5 34  1  0  0  0
  6  7  1  0  0  0
  6 20  1  0  0  0
  7  8  2  0  0  0
  7 19  1  0  0  0
  8 35  1  0  0  0
 11 13  2  0  0  0
 11 14  1  0  0  0
 11 17  1  0  0  0
 12 13  1  0  0  0
 12 15  2  0  0  0
 12 36  1  0  0  0
 13 16  1  0  0  0
 14 23  2  0  0  0
 14 37  1  0  0  0
 15 23  1  0  0  0
 15 32  1  0  0  0
 17 18  1  0  0  0
 19 22  1  0  0  0
 20 21  1  0  0  0
 21 38  1  0  0  0
 21 39  1  0  0  0
 21 40  1  0  0  0
 22 24  1  0  0  0
 22 41  1  0  0  0
 22 42  1  0  0  0
 23 43  1  0  0  0
 24 25  1  0  0  0
 24 44  1  0  0  0
 24 45  1  0  0  0
 25 28  1  0  0  0
 25 29  1  0  0  0
 25 46  1  0  0  0
 26 29  1  0  0  0
 26 30  1  0  0  0
 26 47  1  0  0  0
 26 48  1  0  0  0
 27 28  1  0  0  0
 27 30  1  0  0  0
 27 49  1  0  0  0
 27 50  1  0  0  0
 28 51  1  0  0  0
 28 52  1  0  0  0
 29 53  1  0  0  0
 29 54  1  0  0  0
 30 31  1  0  0  0
 30 58  1  0  0  0
 31 55  1  0  0  0
 31 56  1  0  0  0
 31 57  1  0  0  0
M  CHG  1  30   1
M  END
> <s_m_entry_id>
266

> <s_m_entry_name>
pocket_pv.77

> <s_m_Source_Path>
/home/bortolaa/Project/GT/mario-master/docking/set505protein_struct_1_site_1_set505ligs_train

> <s_m_Source_File>
pocket_pv.maegz

> <i_m_Source_File_Index>
77

> <From>
www.bindingDB.org

> <BindingDB Reactant_set_id>
7093

> <Ligand InChI>
InChI=1S/C23H26BrFN4O2/c1-29-8-5-15(6-9-29)7-10-31-22-13-20-17(12-21(22)30-2)23(27-14-26-20)28-19-4-3-16(24)11-18(19)25/h3-4,11-15H,5-10H2,1-2H3,(H,26,27,28)

> <Ligand InChI Key>
OORQGKRPXSYBAR-UHFFFAOYSA-N

> <BindingDB MonomerID>
4680

> <BindingDB Ligand Name>
4-Anilinoquinazoline 27::N-(4-Bromo-2-fluorophenyl)-6-methoxy-7-[2-(1-methylpiperidin-4-yl)ethoxy]quinazolin-4-amine

> <Target Name Assigned by Curator or DataSource>
Epidermal growth factor receptor

> <Target Source Organism According to Curator or DataSource>
Homo sapiens

> <Ki (nM)>


> <Kd (nM)>


> <EC50 (nM)>


> <kon (M-1-s-1)>


> <koff (s-1)>


> <pH>


> <Curation/DataSource>
Curated from the literature by BindingDB

> <Article DOI>
10.1021/jm011022e

> <PubChem AID>


> <Patent Number>


> <Authors>
Hennequin, LF; Stokes, ES; Thomas, AP; Johnstone, C; Ple, PA; Ogilvie, DJ; Dukes, M; Wedge, SR; Kendrew, J; Curwen, JO

> <Institution>
AstraZeneca

> <Link to Ligand in BindingDB>
http://www.bindingdb.org/bind/chemsearch/marvin/MolStructure.jsp?monomerid=4680

> <Link to Ligand-Target Pair in BindingDB>
http://www.bindingdb.org/jsp/dbsearch/PrimarySearch_ki.jsp?energyterm=kJ/mole&tag=r21&monomerid=4680&enzyme=Epidermal+growth+factor+receptor&column=ki&startPg=0&Increment=50&submit=Search

> <Ligand HET ID in PDB>


> <PDB ID(s) for Ligand-Target Complex>


> <PubChem CID>
5329053

> <PubChem SID>
8034337

> <ChEBI ID of Ligand>


> <ChEMBL ID of Ligand>


> <DrugBank ID of Ligand>


> <IUPHAR_GRAC ID of Ligand>


> <KEGG ID of Ligand>


> <ZINC ID of Ligand>
ZINC13472797

> <Number of Protein Chains in Target (>
1

> <BindingDB Target Chain Sequence>
MRPSGTAGAALLALLAALCPASRALEEKKVCQGTSNKLTQLGTFEDHFLSLQRMFNNCEVVLGNLEITYVQRNYDLSFLKTIQEVAGYVLIALNTVERIPLENLQIIRGNMYYENSYALAVLSNYDANKTGLKELPMRNLQEILHGAVRFSNNPALCNVESIQWRDIVSSDFLSNMSMDFQNHLGSCQKCDPSCPNGSCWGAGEENCQKLTKIICAQQCSGRCRGKSPSDCCHNQCAAGCTGPRESDCLVCRKFRDEATCKDTCPPLMLYNPTTYQMDVNPEGKYSFGATCVKKCPRNYVVTDHGSCVRACGADSYEMEEDGVRKCKKCEGPCRKVCNGIGIGEFKDSLSINATNIKHFKNCTSISGDLHILPVAFRGDSFTHTPPLDPQELDILKTVKEITGFLLIQAWPENRTDLHAFENLEIIRGRTKQHGQFSLAVVSLNITSLGLRSLKEISDGDVIISGNKNLCYANTINWKKLFGTSGQKTKIISNRGENSCKATGQVCHALCSPEGCWGPEPRDCVSCRNVSRGRECVDKCNLLEGEPREFVENSECIQCHPECLPQAMNITCTGRGPDNCIQCAHYIDGPHCVKTCPAGVMGENNTLVWKYADAGHVCHLCHPNCTYGCTGPGLEGCPTNGPKIPSIATGMVGALLLLLVVALGIGLFMRRRHIVRKRTLRRLLQERELVEPLTPSGEAPNQALLRILKETEFKKIKVLGSGAFGTVYKGLWIPEGEKVKIPVAIKELREATSPKANKEILDEAYVMASVDNPHVCRLLGICLTSTVQLITQLMPFGCLLDYVREHKDNIGSQYLLNWCVQIAKGMNYLEDRRLVHRDLAARNVLVKTPQHVKITDFGLAKLLGAEEKEYHAEGGKVPIKWMALESILHRIYTHQSDVWSYGVTVWELMTFGSKPYDGIPASEISSILEKGERLPQPPICTIDVYMIMVKCWMIDADSRPKFRELIIEFSKMARDPQRYLVIQGDERMHLPSPTDSNFYRALMDEEDMDDVVDADEYLIPQQGFFSSPSTSRTPLLSSLSATSNNSTVACIDRNGLQSCPIKEDSFLQRYSSDPTGALTEDSIDDTFLPVPEYINQSVPKRPAGSVQNPVYHNQPLNPAPSRDPHYQDPHSTAVGNPEYLNTVQPTCVNSTFDSPAHWAQKGSHQISLDNPDYQQDFFPKEAKPNGIFKGSTAENAEYLRVAPQSSEFIGA

> <PDB ID(s) of Target Chain>
1IVO,1M14,1M17,1MOX,1XKK,1Z9I,2GS2,2GS6,2ITW,2ITX,2ITY,2J5E,2J5F,2J6M,2RF9,2RGP,3B2V,3BEL,3GOP,3POZ,3QWQ,3VJO,3W2O,3W2P,3W2Q,3W2R,3W2S,3W32,3W33,4G5J,4I23,4JQ7,4JQ8,4JR3,4JRV,4KRO,4LI5,4RJ4,4RJ5,4RJ6,4RJ7,4RJ8,4TKS,4UIP,4UV7,4WKQ,4WRG,4ZAU,5C8K,5C8M,5C8N,5CAL,5CAN,5CAO,5CAP,5CAQ,5CAS,5CAU,5CAV,5EDP,5EDQ,5EDR,5EM5,5EM6,5EM7,5EM8,5FED,5GNK,5HCX,5HCY,5HCZ,5HIB,5HIC,5UGB,5WB7,5WB8,5Y25,6S89,6S8A

> <UniProt (SwissProt) Recommended Name of Target Chain>
Epidermal growth factor receptor

> <UniProt (SwissProt) Entry Name of Target Chain>
EGFR_HUMAN

> <UniProt (SwissProt) Primary ID of Target Chain>
P00533

> <UniProt (SwissProt) Secondary ID(s) of Target Chain>
O00688,O00732,P06268,Q14225,Q68GS5,Q92795,Q9BZS2,Q9GZX1,Q9H2C9,Q9H3C9,Q9UMD7,Q9UMD8,Q9UMG5

> <UniProt (SwissProt) Alternative ID(s) of Target Chain>


> <UniProt (TrEMBL) Submitted Name of Target Chain>


> <UniProt (TrEMBL) Entry Name of Target Chain>


> <UniProt (TrEMBL) Primary ID of Target Chain>


> <UniProt (TrEMBL) Secondary ID(s) of Target Chain>


> <UniProt (TrEMBL) Alternative ID(s) of Target Chain>


> <training label>
6.69897

> <i_lp_mmshare_version>
54117

> <s_epik_input>
W2NIXTFbY0hdYyhCcilbY0hdYyhGKWMxW05IXWMobltjSF1uMiljKGMyMylbY0hdYyhPW0NIM10pYyhbY0hdMylPW0NIMl1bQ0gyXVtDSF00W0NIMl1bQ0gyXU4oW0NIM10pW0NIMl1bQ0gyXTQ=

> <s_epik_cmdline>
J2VwaWtfcHl0aG9uJywgJy1waHQnLCAnMC4xJywgJy1waCcsICc3LjQnLCAnLXRuJywgJzgnLCAnLW1hJywgJzIwMCcsICctaW1hZScsICc8aW5maWxlLm1hZT4nLCAnLW9tYWUnLCAnPG91dGZpbGUubWFlPic=

> <r_lp_tautomer_probability>
1

> <r_epik_Ionization_Penalty>
  0.0028

> <r_epik_Ionization_Penalty_Charging>
  0.0022

> <r_epik_Ionization_Penalty_Neutral>
  0.0007

> <r_epik_State_Penalty>
  0.0000

> <r_epik_Charging_Adjusted_Penalty>
0.00215668419207172

> <i_epik_Tot_Q>
1

> <i_epik_Tot_abs_Q>
1

> <i_f3d_flags>
0

> <s_lp_Force_Field>
OPLS_2005

> <r_lp_Energy>
35.63457

> <b_lp_Chiralities_Consistent>
1

> <s_lp_Variant>
4-Anilinoquinazoline-1

> <s_i_glide_gridfile>
struct_1_site_1

> <i_i_glide_lignum>
134

> <i_i_glide_rotatable_bonds>
7

> <r_i_docking_score>
-7.83974698131708

> <r_i_glide_ligand_efficiency>
-0.252895063913454

> <r_i_glide_ligand_efficiency_sa>
-0.794439659953645

> <r_i_glide_ligand_efficiency_ln>
-1.76810320367792

> <r_i_glide_gscore>
-7.83974698131708

> <r_i_glide_lipo>
-3.51025904578787

> <r_i_glide_hbond>
-0.32

> <r_i_glide_metal>
0

> <r_i_glide_rewards>
-1.20776132855052

> <r_i_glide_evdw>
-45.2179946899414

> <r_i_glide_ecoul>
-6.22240972518921

> <r_i_glide_erotb>
0.507737447998545

> <r_i_glide_esite>
-0.115202861701785

> <r_i_glide_emodel>
-54.8190279720801

> <r_i_glide_energy>
-51.4404044151306

> <r_i_glide_einternal>
3.74744009971619

> <i_i_glide_confnum>
31

> <i_i_glide_posenum>
90

> <r_i_glide_eff_state_penalty>
0

> <IC50 (nM)>
200

> <PMID>
11881999

> <Temp C>
25

> <r_glide_shape_similarity>
0.785974383354187

> <s_m_subgroup_title>
505 training

> <s_m_subgroupid>
pocket_pv

> <b_m_subgroup_collapsed>
0

$$$$
BindingDB_3032_mol_1
                    3D
 Schrodinger Suite 2021-2.
 36 38  0  0  1  0            999 V2000
   23.0910   -1.7305   55.4100 C   0  0  0  0  0  0
   23.4374   -0.0992   53.8659 C   0  0  0  0  0  0
   21.8000   -1.8869   55.1382 N   0  0  0  0  0  0
   23.9364   -0.8942   54.8245 N   0  0  0  0  0  0
   21.2696   -1.1063   54.1796 C   0  0  0  0  0  0
   22.0744   -0.1672   53.5036 C   0  0  0  0  0  0
   19.9077   -1.2022   53.8367 C   0  0  0  0  0  0
   21.5204    0.6442   52.4967 C   0  0  0  0  0  0
   19.3430   -0.3829   52.8343 C   0  0  0  0  0  0
   20.1632    0.5206   52.1386 C   0  0  0  0  0  0
   18.0203   -0.3989   52.4566 O   0  0  0  0  0  0
   17.1072   -1.1476   53.2262 C   0  0  0  0  0  0
   19.5836    1.2432   51.1256 O   0  0  0  0  0  0
   20.4203    1.7317   50.0869 C   0  0  0  0  0  0
   24.2890    0.8464   53.2759 N   0  0  0  0  0  0
   25.6832    0.9492   53.3460 C   0  0  0  0  0  0
   26.2734    2.2265   53.3703 C   0  0  0  0  0  0
   27.6700    2.3631   53.4244 C   0  0  0  0  0  0
   28.4894    1.2255   53.4368 C   0  0  0  0  0  0
   27.9094   -0.0474   53.3818 C   0  0  0  0  0  0
   26.5147   -0.1877   53.3330 C   0  0  0  0  0  0
   29.0160   -1.5878   53.3747 Br  0  0  0  0  0  0
   23.5012   -2.3709   56.1748 H   0  0  0  0  0  0
   19.3037   -1.9155   54.3744 H   0  0  0  0  0  0
   22.1443    1.3496   51.9737 H   0  0  0  0  0  0
   16.0951   -0.9644   52.8650 H   0  0  0  0  0  0
   17.3031   -2.2175   53.1295 H   0  0  0  0  0  0
   17.1408   -0.8627   54.2806 H   0  0  0  0  0  0
   19.7973    2.0633   49.2532 H   0  0  0  0  0  0
   21.0953    0.9579   49.7080 H   0  0  0  0  0  0
   21.0042    2.5951   50.4274 H   0  0  0  0  0  0
   23.8233    1.6223   52.8394 H   0  0  0  0  0  0
   25.6649    3.1205   53.3633 H   0  0  0  0  0  0
   28.1121    3.3501   53.4589 H   0  0  0  0  0  0
   29.5646    1.3342   53.4831 H   0  0  0  0  0  0
   26.0914   -1.1800   53.2892 H   0  0  0  0  0  0
  1  3  1  0  0  0
  1  4  2  0  0  0
  1 23  1  0  0  0
  2  4  1  0  0  0
  2  6  2  0  0  0
  2 15  1  0  0  0
  3  5  2  0  0  0
  5  6  1  0  0  0
  5  7  1  0  0  0
  6  8  1  0  0  0
  7  9  2  0  0  0
  7 24  1  0  0  0
  8 10  2  0  0  0
  8 25  1  0  0  0
  9 10  1  0  0  0
  9 11  1  0  0  0
 10 13  1  0  0  0
 11 12  1  0  0  0
 12 26  1  0  0  0
 12 27  1  0  0  0
 12 28  1  0  0  0
 13 14  1  0  0  0
 14 29  1  0  0  0
 14 30  1  0  0  0
 14 31  1  0  0  0
 15 16  1  0  0  0
 15 32  1  0  0  0
 16 17  1  0  0  0
 16 21  2  0  0  0
 17 18  2  0  0  0
 17 33  1  0  0  0
 18 19  1  0  0  0
 18 34  1  0  0  0
 19 20  2  0  0  0
 19 35  1  0  0  0
 20 21  1  0  0  0
 20 22  1  0  0  0
 21 36  1  0  0  0
M  END
> <s_m_entry_id>
267

> <s_m_entry_name>
pocket_pv.78

> <s_m_Source_Path>
/home/bortolaa/Project/GT/mario-master/docking/set505protein_struct_1_site_1_set505ligs_train

> <s_m_Source_File>
pocket_pv.maegz

> <i_m_Source_File_Index>
78

> <From>
www.bindingDB.org

> <BindingDB Reactant_set_id>
423205

> <Ligand InChI>
InChI=1S/C16H14BrN3O2/c1-21-14-7-12-13(8-15(14)22-2)18-9-19-16(12)20-11-5-3-4-10(17)6-11/h3-9H,1-2H3,(H,18,19,20)

> <Ligand InChI Key>
LSPANGZZENHZNJ-UHFFFAOYSA-N

> <BindingDB MonomerID>
3032

> <BindingDB Ligand Name>
CHEMBL1204168::CHEMBL29197::N-(3-bromophenyl)-6,7-dimethoxyquinazolin-4-amine::PD153035::US9422297, PD153035

> <Target Name Assigned by Curator or DataSource>
Epidermal growth factor receptor

> <Target Source Organism According to Curator or DataSource>
Homo sapiens

> <Ki (nM)>


> <Kd (nM)>


> <EC50 (nM)>


> <kon (M-1-s-1)>


> <koff (s-1)>


> <pH>


> <Temp C>


> <Curation/DataSource>
US Patent

> <Article DOI>


> <PMID>


> <PubChem AID>


> <Patent Number>
US9422297

> <Authors>
Gangjee, A

> <Institution>
Duquesne University of the Holy Ghost

> <Link to Ligand in BindingDB>
http://www.bindingdb.org/bind/chemsearch/marvin/MolStructure.jsp?monomerid=3032

> <Link to Ligand-Target Pair in BindingDB>
http://www.bindingdb.org/jsp/dbsearch/PrimarySearch_ki.jsp?energyterm=kJ/mole&tag=r21&monomerid=3032&enzyme=Epidermal+growth+factor+receptor&column=ki&startPg=0&Increment=50&submit=Search

> <Ligand HET ID in PDB>


> <PDB ID(s) for Ligand-Target Complex>


> <PubChem CID>
4705

> <PubChem SID>
8032779

> <ChEBI ID of Ligand>


> <ChEMBL ID of Ligand>
CHEMBL1204168
CHEMBL29197

> <DrugBank ID of Ligand>


> <IUPHAR_GRAC ID of Ligand>


> <KEGG ID of Ligand>


> <ZINC ID of Ligand>
ZINC00600292

> <Number of Protein Chains in Target (>
1

> <BindingDB Target Chain Sequence>
MRPSGTAGAALLALLAALCPASRALEEKKVCQGTSNKLTQLGTFEDHFLSLQRMFNNCEVVLGNLEITYVQRNYDLSFLKTIQEVAGYVLIALNTVERIPLENLQIIRGNMYYENSYALAVLSNYDANKTGLKELPMRNLQEILHGAVRFSNNPALCNVESIQWRDIVSSDFLSNMSMDFQNHLGSCQKCDPSCPNGSCWGAGEENCQKLTKIICAQQCSGRCRGKSPSDCCHNQCAAGCTGPRESDCLVCRKFRDEATCKDTCPPLMLYNPTTYQMDVNPEGKYSFGATCVKKCPRNYVVTDHGSCVRACGADSYEMEEDGVRKCKKCEGPCRKVCNGIGIGEFKDSLSINATNIKHFKNCTSISGDLHILPVAFRGDSFTHTPPLDPQELDILKTVKEITGFLLIQAWPENRTDLHAFENLEIIRGRTKQHGQFSLAVVSLNITSLGLRSLKEISDGDVIISGNKNLCYANTINWKKLFGTSGQKTKIISNRGENSCKATGQVCHALCSPEGCWGPEPRDCVSCRNVSRGRECVDKCNLLEGEPREFVENSECIQCHPECLPQAMNITCTGRGPDNCIQCAHYIDGPHCVKTCPAGVMGENNTLVWKYADAGHVCHLCHPNCTYGCTGPGLEGCPTNGPKIPSIATGMVGALLLLLVVALGIGLFMRRRHIVRKRTLRRLLQERELVEPLTPSGEAPNQALLRILKETEFKKIKVLGSGAFGTVYKGLWIPEGEKVKIPVAIKELREATSPKANKEILDEAYVMASVDNPHVCRLLGICLTSTVQLITQLMPFGCLLDYVREHKDNIGSQYLLNWCVQIAKGMNYLEDRRLVHRDLAARNVLVKTPQHVKITDFGLAKLLGAEEKEYHAEGGKVPIKWMALESILHRIYTHQSDVWSYGVTVWELMTFGSKPYDGIPASEISSILEKGERLPQPPICTIDVYMIMVKCWMIDADSRPKFRELIIEFSKMARDPQRYLVIQGDERMHLPSPTDSNFYRALMDEEDMDDVVDADEYLIPQQGFFSSPSTSRTPLLSSLSATSNNSTVACIDRNGLQSCPIKEDSFLQRYSSDPTGALTEDSIDDTFLPVPEYINQSVPKRPAGSVQNPVYHNQPLNPAPSRDPHYQDPHSTAVGNPEYLNTVQPTCVNSTFDSPAHWAQKGSHQISLDNPDYQQDFFPKEAKPNGIFKGSTAENAEYLRVAPQSSEFIGA

> <PDB ID(s) of Target Chain>
1IVO,1M14,1M17,1MOX,1XKK,1Z9I,2GS2,2GS6,2ITW,2ITX,2ITY,2J5E,2J5F,2J6M,2RF9,2RGP,3B2V,3BEL,3GOP,3POZ,3QWQ,3VJO,3W2O,3W2P,3W2Q,3W2R,3W2S,3W32,3W33,4G5J,4I23,4JQ7,4JQ8,4JR3,4JRV,4KRO,4LI5,4RJ4,4RJ5,4RJ6,4RJ7,4RJ8,4TKS,4UIP,4UV7,4WKQ,4WRG,4ZAU,5C8K,5C8M,5C8N,5CAL,5CAN,5CAO,5CAP,5CAQ,5CAS,5CAU,5CAV,5EDP,5EDQ,5EDR,5EM5,5EM6,5EM7,5EM8,5FED,5GNK,5HCX,5HCY,5HCZ,5HIB,5HIC,5UGB,5WB7,5WB8,5Y25,6S89,6S8A

> <UniProt (SwissProt) Recommended Name of Target Chain>
Epidermal growth factor receptor

> <UniProt (SwissProt) Entry Name of Target Chain>
EGFR_HUMAN

> <UniProt (SwissProt) Primary ID of Target Chain>
P00533

> <UniProt (SwissProt) Secondary ID(s) of Target Chain>
O00688,O00732,P06268,Q14225,Q68GS5,Q92795,Q9BZS2,Q9GZX1,Q9H2C9,Q9H3C9,Q9UMD7,Q9UMD8,Q9UMG5

> <UniProt (SwissProt) Alternative ID(s) of Target Chain>


> <UniProt (TrEMBL) Submitted Name of Target Chain>


> <UniProt (TrEMBL) Entry Name of Target Chain>


> <UniProt (TrEMBL) Primary ID of Target Chain>


> <UniProt (TrEMBL) Secondary ID(s) of Target Chain>


> <UniProt (TrEMBL) Alternative ID(s) of Target Chain>


> <training label>
6.63827

> <i_lp_mmshare_version>
54117

> <s_epik_input>
W0NIM11PYyhbY0hdMSljKE9bQ0gzXSlbY0hdYyhjMTIpYyhuW2NIXW4yKVtOSF1jM1tjSF1bY0hdW2NIXWMoQnIpW2NIXTM=

> <s_epik_cmdline>
J2VwaWtfcHl0aG9uJywgJy1waHQnLCAnMC4xJywgJy1waCcsICc3LjQnLCAnLXRuJywgJzgnLCAnLW1hJywgJzIwMCcsICctaW1hZScsICc8aW5maWxlLm1hZT4nLCAnLW9tYWUnLCAnPG91dGZpbGUubWFlPic=

> <r_lp_tautomer_probability>
1

> <r_epik_Ionization_Penalty>
  0.0006

> <r_epik_Ionization_Penalty_Charging>
  0.0000

> <r_epik_Ionization_Penalty_Neutral>
  0.0006

> <r_epik_State_Penalty>
  0.0000

> <r_epik_Charging_Adjusted_Penalty>
0

> <i_epik_Tot_Q>
0

> <i_epik_Tot_abs_Q>
0

> <i_f3d_flags>
0

> <s_lp_Force_Field>
OPLS_2005

> <r_lp_Energy>
20.158609

> <b_lp_Chiralities_Consistent>
1

> <s_lp_Variant>
BindingDB_3032_mol_1-1

> <s_i_glide_gridfile>
struct_1_site_1

> <i_i_glide_lignum>
130

> <i_i_glide_rotatable_bonds>
4

> <r_i_docking_score>
-7.83922116703276

> <r_i_glide_ligand_efficiency>
-0.356328234865126

> <r_i_glide_ligand_efficiency_sa>
-0.998445727686346

> <r_i_glide_ligand_efficiency_ln>
-1.91619159576249

> <r_i_glide_gscore>
-7.83922116703276

> <r_i_glide_lipo>
-2.90801931692731

> <r_i_glide_hbond>
-0.32

> <r_i_glide_metal>
0

> <r_i_glide_rewards>
-2.11633013271727

> <r_i_glide_evdw>
-40.2977447509766

> <r_i_glide_ecoul>
-5.17051792144775

> <r_i_glide_erotb>
0.295593208377807

> <r_i_glide_esite>
0

> <r_i_glide_emodel>
-47.5985725235924

> <r_i_glide_energy>
-45.4682626724243

> <r_i_glide_einternal>
1.5245041847229

> <i_i_glide_confnum>
4

> <i_i_glide_posenum>
23

> <r_i_glide_eff_state_penalty>
0

> <IC50 (nM)>
230

> <r_glide_shape_similarity>
0.799535870552063

> <s_m_subgroup_title>
505 training

> <s_m_subgroupid>
pocket_pv

> <b_m_subgroup_collapsed>
0

$$$$
Anilinoquinazoline
                    3D
 Schrodinger Suite 2021-2.
 36 38  0  0  1  0            999 V2000
   21.5175    0.6421   52.4953 C   0  0  0  0  0  0
   20.1617    0.5215   52.1415 C   0  0  0  0  0  0
   19.3429   -0.3832   52.8357 C   0  0  0  0  0  0
   19.9091   -1.2036   53.8383 C   0  0  0  0  0  0
   22.0740   -0.1681   53.5022 C   0  0  0  0  0  0
   21.2707   -1.1091   54.1794 C   0  0  0  0  0  0
   23.4361   -0.0971   53.8663 C   0  0  0  0  0  0
   23.0930   -1.7335   55.4079 C   0  0  0  0  0  0
   23.9360   -0.8957   54.8227 N   0  0  0  0  0  0
   21.8020   -1.8905   55.1371 N   0  0  0  0  0  0
   25.6799    0.9467   53.3424 C   0  0  0  0  0  0
   27.8958   -0.0641   53.3862 C   0  0  0  0  0  0
   26.5043   -0.1935   53.3317 C   0  0  0  0  0  0
   26.2707    2.2221   53.3679 C   0  0  0  0  0  0
   27.6658    2.3517   53.4291 C   0  0  0  0  0  0
   24.2869    0.8479   53.2765 N   0  0  0  0  0  0
   23.8205    1.6218   52.8356 H   0  0  0  0  0  0
   18.0213   -0.4028   52.4581 O   0  0  0  0  0  0
   17.1099   -1.1424   53.2395 C   0  0  0  0  0  0
   19.5884    1.2630   51.1382 O   0  0  0  0  0  0
   20.3939    1.5681   50.0122 C   0  0  0  0  0  0
   28.4712    1.2063   53.4570 C   0  0  0  0  0  0
   29.8050    1.3161   53.5696 F   0  0  0  0  0  0
   28.8877   -1.4668   53.3738 Cl  0  0  0  0  0  0
   22.1347    1.3536   51.9703 H   0  0  0  0  0  0
   19.3039   -1.9139   54.3796 H   0  0  0  0  0  0
   23.5041   -2.3743   56.1736 H   0  0  0  0  0  0
   26.0721   -1.1819   53.2760 H   0  0  0  0  0  0
   25.6614    3.1154   53.3569 H   0  0  0  0  0  0
   28.1135    3.3344   53.4726 H   0  0  0  0  0  0
   16.0951   -0.9497   52.8926 H   0  0  0  0  0  0
   17.2945   -2.2132   53.1479 H   0  0  0  0  0  0
   17.1562   -0.8634   54.2928 H   0  0  0  0  0  0
   19.7542    1.8775   49.1855 H   0  0  0  0  0  0
   20.9683    0.7025   49.6780 H   0  0  0  0  0  0
   21.0768    2.3905   50.2266 H   0  0  0  0  0  0
  1  2  1  0  0  0
  1  5  2  0  0  0
  1 25  1  0  0  0
  2  3  2  0  0  0
  2 20  1  0  0  0
  3  4  1  0  0  0
  3 18  1  0  0  0
  4  6  2  0  0  0
  4 26  1  0  0  0
  5  6  1  0  0  0
  5  7  1  0  0  0
  6 10  1  0  0  0
  7  9  2  0  0  0
  7 16  1  0  0  0
  8  9  1  0  0  0
  8 10  2  0  0  0
  8 27  1  0  0  0
 11 13  2  0  0  0
 11 14  1  0  0  0
 11 16  1  0  0  0
 12 13  1  0  0  0
 12 22  2  0  0  0
 12 24  1  0  0  0
 13 28  1  0  0  0
 14 15  2  0  0  0
 14 29  1  0  0  0
 15 22  1  0  0  0
 15 30  1  0  0  0
 16 17  1  0  0  0
 18 19  1  0  0  0
 19 31  1  0  0  0
 19 32  1  0  0  0
 19 33  1  0  0  0
 20 21  1  0  0  0
 21 34  1  0  0  0
 21 35  1  0  0  0
 21 36  1  0  0  0
 22 23  1  0  0  0
M  END
> <s_m_entry_id>
268

> <s_m_entry_name>
pocket_pv.79

> <s_m_Source_Path>
/home/bortolaa/Project/GT/mario-master/docking/set505protein_struct_1_site_1_set505ligs_train

> <s_m_Source_File>
pocket_pv.maegz

> <i_m_Source_File_Index>
79

> <From>
www.bindingDB.org

> <BindingDB Reactant_set_id>
50432891

> <Ligand InChI>
InChI=1S/C16H13ClFN3O2/c1-22-14-6-10-13(7-15(14)23-2)19-8-20-16(10)21-9-3-4-12(18)11(17)5-9/h3-8H,1-2H3,(H,19,20,21)

> <Ligand InChI Key>
VOPNWXZDJKCCRE-UHFFFAOYSA-N

> <BindingDB MonomerID>
4626

> <BindingDB Ligand Name>
Anilinoquinazoline deriv. 9::CHEMBL301018::N-(3-chloro-4-fluorophenyl)-6,7-dimethoxyquinazolin-4-amine

> <Target Name Assigned by Curator or DataSource>
Epidermal growth factor receptor

> <Target Source Organism According to Curator or DataSource>
Homo sapiens

> <Ki (nM)>


> <Kd (nM)>


> <EC50 (nM)>


> <kon (M-1-s-1)>


> <koff (s-1)>


> <pH>


> <Temp C>


> <Curation/DataSource>
ChEMBL

> <Article DOI>
10.1016/j.bmc.2015.10.035

> <PubChem AID>


> <Patent Number>


> <Authors>
Ravez, S; Arsenlis, S; Barczyk, A; Dupont, A; Frédérick, R; Hesse, S; Kirsch, G; Depreux, P; Goossens, L

> <Institution>
Univ. Lille

> <Link to Ligand in BindingDB>
http://www.bindingdb.org/bind/chemsearch/marvin/MolStructure.jsp?monomerid=4626

> <Link to Ligand-Target Pair in BindingDB>
http://www.bindingdb.org/jsp/dbsearch/PrimarySearch_ki.jsp?energyterm=kJ/mole&tag=r21&monomerid=4626&enzyme=Epidermal+growth+factor+receptor&column=ki&startPg=0&Increment=50&submit=Search

> <Ligand HET ID in PDB>


> <PDB ID(s) for Ligand-Target Complex>


> <PubChem CID>
5329009

> <PubChem SID>
8034289

> <ChEBI ID of Ligand>


> <ChEMBL ID of Ligand>
CHEMBL301018

> <DrugBank ID of Ligand>


> <IUPHAR_GRAC ID of Ligand>


> <KEGG ID of Ligand>


> <ZINC ID of Ligand>
ZINC00016978

> <Number of Protein Chains in Target (>
1

> <BindingDB Target Chain Sequence>
MRPSGTAGAALLALLAALCPASRALEEKKVCQGTSNKLTQLGTFEDHFLSLQRMFNNCEVVLGNLEITYVQRNYDLSFLKTIQEVAGYVLIALNTVERIPLENLQIIRGNMYYENSYALAVLSNYDANKTGLKELPMRNLQEILHGAVRFSNNPALCNVESIQWRDIVSSDFLSNMSMDFQNHLGSCQKCDPSCPNGSCWGAGEENCQKLTKIICAQQCSGRCRGKSPSDCCHNQCAAGCTGPRESDCLVCRKFRDEATCKDTCPPLMLYNPTTYQMDVNPEGKYSFGATCVKKCPRNYVVTDHGSCVRACGADSYEMEEDGVRKCKKCEGPCRKVCNGIGIGEFKDSLSINATNIKHFKNCTSISGDLHILPVAFRGDSFTHTPPLDPQELDILKTVKEITGFLLIQAWPENRTDLHAFENLEIIRGRTKQHGQFSLAVVSLNITSLGLRSLKEISDGDVIISGNKNLCYANTINWKKLFGTSGQKTKIISNRGENSCKATGQVCHALCSPEGCWGPEPRDCVSCRNVSRGRECVDKCNLLEGEPREFVENSECIQCHPECLPQAMNITCTGRGPDNCIQCAHYIDGPHCVKTCPAGVMGENNTLVWKYADAGHVCHLCHPNCTYGCTGPGLEGCPTNGPKIPSIATGMVGALLLLLVVALGIGLFMRRRHIVRKRTLRRLLQERELVEPLTPSGEAPNQALLRILKETEFKKIKVLGSGAFGTVYKGLWIPEGEKVKIPVAIKELREATSPKANKEILDEAYVMASVDNPHVCRLLGICLTSTVQLITQLMPFGCLLDYVREHKDNIGSQYLLNWCVQIAKGMNYLEDRRLVHRDLAARNVLVKTPQHVKITDFGLAKLLGAEEKEYHAEGGKVPIKWMALESILHRIYTHQSDVWSYGVTVWELMTFGSKPYDGIPASEISSILEKGERLPQPPICTIDVYMIMVKCWMIDADSRPKFRELIIEFSKMARDPQRYLVIQGDERMHLPSPTDSNFYRALMDEEDMDDVVDADEYLIPQQGFFSSPSTSRTPLLSSLSATSNNSTVACIDRNGLQSCPIKEDSFLQRYSSDPTGALTEDSIDDTFLPVPEYINQSVPKRPAGSVQNPVYHNQPLNPAPSRDPHYQDPHSTAVGNPEYLNTVQPTCVNSTFDSPAHWAQKGSHQISLDNPDYQQDFFPKEAKPNGIFKGSTAENAEYLRVAPQSSEFIGA

> <PDB ID(s) of Target Chain>
1IVO,1M14,1M17,1MOX,1XKK,1Z9I,2GS2,2GS6,2ITW,2ITX,2ITY,2J5E,2J5F,2J6M,2RF9,2RGP,3B2V,3BEL,3GOP,3POZ,3QWQ,3VJO,3W2O,3W2P,3W2Q,3W2R,3W2S,3W32,3W33,4G5J,4I23,4JQ7,4JQ8,4JR3,4JRV,4KRO,4LI5,4RJ4,4RJ5,4RJ6,4RJ7,4RJ8,4TKS,4UIP,4UV7,4WKQ,4WRG,4ZAU,5C8K,5C8M,5C8N,5CAL,5CAN,5CAO,5CAP,5CAQ,5CAS,5CAU,5CAV,5EDP,5EDQ,5EDR,5EM5,5EM6,5EM7,5EM8,5FED,5GNK,5HCX,5HCY,5HCZ,5HIB,5HIC,5UGB,5WB7,5WB8,5Y25,6S89,6S8A

> <UniProt (SwissProt) Recommended Name of Target Chain>
Epidermal growth factor receptor

> <UniProt (SwissProt) Entry Name of Target Chain>
EGFR_HUMAN

> <UniProt (SwissProt) Primary ID of Target Chain>
P00533

> <UniProt (SwissProt) Secondary ID(s) of Target Chain>
O00688,O00732,P06268,Q14225,Q68GS5,Q92795,Q9BZS2,Q9GZX1,Q9H2C9,Q9H3C9,Q9UMD7,Q9UMD8,Q9UMG5

> <UniProt (SwissProt) Alternative ID(s) of Target Chain>


> <UniProt (TrEMBL) Submitted Name of Target Chain>


> <UniProt (TrEMBL) Entry Name of Target Chain>


> <UniProt (TrEMBL) Primary ID of Target Chain>


> <UniProt (TrEMBL) Secondary ID(s) of Target Chain>


> <UniProt (TrEMBL) Alternative ID(s) of Target Chain>


> <training label>
6.39794

> <i_lp_mmshare_version>
54117

> <s_epik_input>
W0NIM11PYyhbY0hdMSljKE9bQ0gzXSlbY0hdYyhjMTIpbltjSF1uYzJbTkhdYzNbY0hdYyhDbCljKEYpW2NIXVtjSF0z

> <s_epik_cmdline>
J2VwaWtfcHl0aG9uJywgJy1waHQnLCAnMC4xJywgJy1waCcsICc3LjQnLCAnLXRuJywgJzgnLCAnLW1hJywgJzIwMCcsICctaW1hZScsICc8aW5maWxlLm1hZT4nLCAnLW9tYWUnLCAnPG91dGZpbGUubWFlPic=

> <r_lp_tautomer_probability>
1

> <r_epik_Ionization_Penalty>
  0.0006

> <r_epik_Ionization_Penalty_Charging>
  0.0000

> <r_epik_Ionization_Penalty_Neutral>
  0.0006

> <r_epik_State_Penalty>
  0.0000

> <r_epik_Charging_Adjusted_Penalty>
0

> <i_epik_Tot_Q>
0

> <i_epik_Tot_abs_Q>
0

> <i_f3d_flags>
0

> <s_lp_Force_Field>
OPLS_2005

> <r_lp_Energy>
19.898569

> <b_lp_Chiralities_Consistent>
1

> <s_lp_Variant>
Anilinoquinazoline-1

> <s_i_glide_gridfile>
struct_1_site_1

> <i_i_glide_lignum>
112

> <i_i_glide_rotatable_bonds>
4

> <r_i_docking_score>
-7.83668832547377

> <r_i_glide_ligand_efficiency>
-0.340725579368425

> <r_i_glide_ligand_efficiency_sa>
-0.968978223343915

> <r_i_glide_ligand_efficiency_ln>
-1.89498229626058

> <r_i_glide_gscore>
-7.83668832547377

> <r_i_glide_lipo>
-2.93462514478494

> <r_i_glide_hbond>
-0.32

> <r_i_glide_metal>
0

> <r_i_glide_rewards>
-2.29615597086792

> <r_i_glide_evdw>
-39.1199569702148

> <r_i_glide_ecoul>
-4.02896547317505

> <r_i_glide_erotb>
0.338491805257429

> <r_i_glide_esite>
-0.0640563455913299

> <r_i_glide_emodel>
-44.7615531534533

> <r_i_glide_energy>
-43.1489224433899

> <r_i_glide_einternal>
0.386647969484329

> <i_i_glide_confnum>
1

> <i_i_glide_posenum>
73

> <r_i_glide_eff_state_penalty>
0

> <IC50 (nM)>
400

> <PMID>
26526740

> <r_glide_shape_similarity>
0.806649029254913

> <s_m_subgroup_title>
505 training

> <s_m_subgroupid>
pocket_pv

> <b_m_subgroup_collapsed>
0

$$$$
/home/bortolaa/Project/GT/mario-master/ligands/set505ligs_train.sdf:67
                    3D
 Schrodinger Suite 2021-2.
 38 41  0  0  1  0            999 V2000
   21.8031   -1.8731   55.1334 N   0  0  0  0  0  0
   23.0921   -1.7090   55.4070 C   0  0  0  0  0  0
   23.9277   -0.8702   54.8178 N   0  0  0  0  0  0
   23.4270   -0.0835   53.8534 C   0  0  0  0  0  0
   22.0624   -0.1601   53.4734 C   0  0  0  0  0  0
   21.4700    0.6233   52.4515 C   0  0  0  0  0  0
   20.1043    0.4681   52.1391 C   0  0  0  0  0  0
   19.3120   -0.4200   52.8596 C   0  0  0  0  0  0
   19.9113   -1.2084   53.8557 C   0  0  0  0  0  0
   21.2740   -1.0996   54.1716 C   0  0  0  0  0  0
   22.2285    1.4975   51.7072 O   0  0  0  0  0  0
   19.5133    1.1538   51.1100 O   0  0  0  0  0  0
   20.4082    1.5657   50.1060 C   0  0  0  0  0  0
   21.5169    2.3470   50.8046 C   0  0  0  0  0  0
   24.2936    0.8487   53.2806 N   0  0  0  0  0  0
   17.9832   -0.4687   52.5128 O   0  0  0  0  0  0
   17.0996   -1.1829   53.3480 C   0  0  0  0  0  0
   25.6847    0.9494   53.3423 C   0  0  0  0  0  0
   26.5065   -0.1921   53.3274 C   0  0  0  0  0  0
   27.8979   -0.0639   53.3860 C   0  0  0  0  0  0
   28.4711    1.2050   53.4550 C   0  0  0  0  0  0
   27.6685    2.3528   53.4261 C   0  0  0  0  0  0
   26.2722    2.2240   53.3697 C   0  0  0  0  0  0
   29.8021    1.3122   53.5682 F   0  0  0  0  0  0
   28.8963   -1.4614   53.3742 Cl  0  0  0  0  0  0
   23.5066   -2.3450   56.1795 H   0  0  0  0  0  0
   19.3292   -1.9265   54.4180 H   0  0  0  0  0  0
   20.7973    0.7026   49.5673 H   0  0  0  0  0  0
   19.8789    2.1981   49.3934 H   0  0  0  0  0  0
   22.2227    2.7291   50.0677 H   0  0  0  0  0  0
   21.1196    3.2089   51.3436 H   0  0  0  0  0  0
   23.8152    1.5793   52.7803 H   0  0  0  0  0  0
   16.0679   -1.0181   53.0263 H   0  0  0  0  0  0
   17.2889   -2.2591   53.2986 H   0  0  0  0  0  0
   17.1748   -0.8639   54.3879 H   0  0  0  0  0  0
   26.0754   -1.1878   53.2721 H   0  0  0  0  0  0
   28.1183    3.3349   53.4734 H   0  0  0  0  0  0
   25.6620    3.1179   53.3543 H   0  0  0  0  0  0
  1  2  1  0  0  0
  1 10  2  0  0  0
  2  3  2  0  0  0
  2 26  1  0  0  0
  3  4  1  0  0  0
  4  5  2  0  0  0
  4 15  1  0  0  0
  5  6  1  0  0  0
  5 10  1  0  0  0
  6  7  2  0  0  0
  6 11  1  0  0  0
  7  8  1  0  0  0
  7 12  1  0  0  0
  8  9  2  0  0  0
  8 16  1  0  0  0
  9 10  1  0  0  0
  9 27  1  0  0  0
 11 14  1  0  0  0
 12 13  1  0  0  0
 13 14  1  0  0  0
 13 28  1  0  0  0
 13 29  1  0  0  0
 14 30  1  0  0  0
 14 31  1  0  0  0
 15 18  1  0  0  0
 15 32  1  0  0  0
 16 17  1  0  0  0
 17 33  1  0  0  0
 17 34  1  0  0  0
 17 35  1  0  0  0
 18 19  1  0  0  0
 18 23  2  0  0  0
 19 20  2  0  0  0
 19 36  1  0  0  0
 20 21  1  0  0  0
 20 25  1  0  0  0
 21 22  2  0  0  0
 21 24  1  0  0  0
 22 23  1  0  0  0
 22 37  1  0  0  0
 23 38  1  0  0  0
M  END
> <s_m_entry_id>
269

> <s_m_entry_name>
pocket_pv.80

> <s_m_Source_Path>
/home/bortolaa/Project/GT/mario-master/docking/set505protein_struct_1_site_1_set505ligs_train

> <s_m_Source_File>
pocket_pv.maegz

> <i_m_Source_File_Index>
80

> <From>
www.bindingDB.org

> <BindingDB Reactant_set_id>
50497589

> <Ligand InChI>
InChI=1S/C17H13ClFN3O3/c1-23-13-7-12-14(16-15(13)24-4-5-25-16)17(21-8-20-12)22-9-2-3-11(19)10(18)6-9/h2-3,6-8H,4-5H2,1H3,(H,20,21,22)

> <Ligand InChI Key>
HDTUBNQMTYLVSV-UHFFFAOYSA-N

> <BindingDB MonomerID>
50172008

> <BindingDB Ligand Name>
CHEMBL3806292::US10106508, Compound I-29

> <Target Name Assigned by Curator or DataSource>
Epidermal growth factor receptor

> <Target Source Organism According to Curator or DataSource>


> <Ki (nM)>


> <IC50 (nM)>
1000

> <Kd (nM)>


> <EC50 (nM)>


> <kon (M-1-s-1)>


> <koff (s-1)>


> <pH>


> <Temp C>


> <Curation/DataSource>
ChEMBL

> <Article DOI>
10.1016/j.bmc.2016.01.003

> <PubChem AID>


> <Patent Number>


> <Authors>
Qin, X; Li, Z; Yang, L; Liu, P; Hu, L; Zeng, C; Pan, Z

> <Institution>
Beijing University of Technology

> <Link to Ligand in BindingDB>
http://www.bindingdb.org/bind/chemsearch/marvin/MolStructure.jsp?monomerid=50172008

> <Link to Ligand-Target Pair in BindingDB>
http://www.bindingdb.org/jsp/dbsearch/PrimarySearch_ki.jsp?energyterm=kJ/mole&tag=r21&monomerid=50172008&enzyme=Epidermal+growth+factor+receptor&column=ki&startPg=0&Increment=50&submit=Search

> <Ligand HET ID in PDB>


> <PDB ID(s) for Ligand-Target Complex>


> <PubChem CID>
122417768

> <PubChem SID>
346548595

> <ChEBI ID of Ligand>


> <ChEMBL ID of Ligand>
CHEMBL3806292

> <DrugBank ID of Ligand>


> <IUPHAR_GRAC ID of Ligand>


> <KEGG ID of Ligand>


> <ZINC ID of Ligand>


> <Number of Protein Chains in Target (>
4

> <BindingDB Target Chain Sequence>
MRANDALQVLGLLFSLARGSEVGNSQAVCPGTLNGLSVTGDAENQYQTLYKLYERCEVVMGNLEIVLTGHNADLSFLQWIREVTGYVLVAMNEFSTLPLPNLRVVRGTQVYDGKFAIFVMLNYNTNSSHALRQLRLTQLTEILSGGVYIEKNDKLCHMDTIDWRDIVRDRDAEIVVKDNGRSCPPCHEVCKGRCWGPGSEDCQTLTKTICAPQCNGHCFGPNPNQCCHDECAGGCSGPQDTDCFACRHFNDSGACVPRCPQPLVYNKLTFQLEPNPHTKYQYGGVCVASCPHNFVVDQTSCVRACPPDKMEVDKNGLKMCEPCGGLCPKACEGTGSGSRFQTVDSSNIDGFVNCTKILGNLDFLITGLNGDPWHKIPALDPEKLNVFRTVREITGYLNIQSWPPHMHNFSVFSNLTTIGGRSLYNRGFSLLIMKNLNVTSLGFRSLKEISAGRIYISANRQLCYHHSLNWTKVLRGPTEERLDIKHNRPRRDCVAEGKVCDPLCSSGGCWGPGPGQCLSCRNYSRGGVCVTHCNFLNGEPREFAHEAECFSCHPECQPMEGTATCNGSGSDTCAQCAHFRDGPHCVSSCPHGVLGAKGPIYKYPDVQNECRPCHENCTQGCKGPELQDCLGQTLVLIGKTHLTMALTVIAGLVVIFMMLGGTFLYWRGRRIQNKRAMRRYLERGESIEPLDPSEKANKVLARIFKETELRKLKVLGSGVFGTVHKGVWIPEGESIKIPVCIKVIEDKSGRQSFQAVTDHMLAIGSLDHAHIVRLLGLCPGSSLQLVTQYLPLGSLLDHVRQHRGALGPQLLLNWGVQIAKGMYYLEEHGMVHRNLAARNVLLKSPSQVQVADFGVADLLPPDDKQLLYSEAKTPIKWMALESIHFGKYTHQSDVWSYGVTVWELMTFGAEPYAGLRLAEVPDLLEKGERLAQPQICTIDVYMVMVKCWMIDENIRPTFKELANEFTRMARDPPRYLVIKRESGPGIAPGPEPHGLTNKKLEEVELEPELDLDLDLEAEEDNLATTTLGSALSLPVGTLNRPRGSQSLLSPSSGYMPMNQGNLGESCQESAVSGSSERCPRPVSLHPMPRGCLASESSEGHVTGSEAELQEKVSMCRSRSRSRSPRPRGDSAYHSQRHSLLTPVTPLSPPGLEEEDVNGYVMPDTHLKGTPSSREGTLSSVGLSSVLGTEEEDEDEEYEYMNRRRRHSPPHPPRPSSLEELGYEYMDVGSDLSASLGSTQSCPLHPVPIMPTAGTTPDEDYEYMNRQRDGGGPGGDYAAMGACPASEQGYEEMRAFQGPGHQAPHVHYARLKTLRSLEATDSAFDNPDYWHSRLFPKANAQRT

> <PDB ID(s) of Target Chain>
3KEX,4RIX,4RIY,5CUS,5O4O,5O7P,6OP9

> <UniProt (SwissProt) Recommended Name of Target Chain>
Receptor tyrosine-protein kinase erbB-3

> <UniProt (SwissProt) Entry Name of Target Chain>
ERBB3_HUMAN

> <UniProt (SwissProt) Primary ID of Target Chain>
P21860

> <UniProt (SwissProt) Secondary ID(s) of Target Chain>
A8K6L6,B4DIK7,B4DV32,E9PDT8,Q9BUD7

> <UniProt (SwissProt) Alternative ID(s) of Target Chain>


> <UniProt (TrEMBL) Submitted Name of Target Chain>


> <UniProt (TrEMBL) Entry Name of Target Chain>


> <UniProt (TrEMBL) Primary ID of Target Chain>


> <UniProt (TrEMBL) Secondary ID(s) of Target Chain>


> <UniProt (TrEMBL) Alternative ID(s) of Target Chain>


> <training label>
6

> <i_lp_mmshare_version>
54117

> <s_epik_input>
TzFbQ0gyXVtDSDJdT2MoYzFjMjMpYyhPW0NIM10pW2NIXWMzbltjSF1uYzJbTkhdYzRbY0hdYyhDbCljKEYpW2NIXVtjSF00

> <s_epik_cmdline>
J2VwaWtfcHl0aG9uJywgJy1waHQnLCAnMC4xJywgJy1waCcsICc3LjQnLCAnLXRuJywgJzgnLCAnLW1hJywgJzIwMCcsICctaW1hZScsICc8aW5maWxlLm1hZT4nLCAnLW9tYWUnLCAnPG91dGZpbGUubWFlPic=

> <r_lp_tautomer_probability>
1

> <r_epik_Ionization_Penalty>
  0.0013

> <r_epik_Ionization_Penalty_Charging>
  0.0000

> <r_epik_Ionization_Penalty_Neutral>
  0.0013

> <r_epik_State_Penalty>
  0.0000

> <r_epik_Charging_Adjusted_Penalty>
0

> <i_epik_Tot_Q>
0

> <i_epik_Tot_abs_Q>
0

> <i_f3d_flags>
0

> <s_lp_Force_Field>
OPLS_2005

> <r_lp_Energy>
24.249709

> <b_lp_Chiralities_Consistent>
1

> <s_lp_Variant>
/home/bortolaa/Project/GT/mario-master/ligands/set505ligs_train.sdf:67-1

> <s_i_glide_gridfile>
struct_1_site_1

> <i_i_glide_lignum>
67

> <i_i_glide_rotatable_bonds>
3

> <r_i_docking_score>
-7.83573047652017

> <r_i_glide_ligand_efficiency>
-0.313429219060807

> <r_i_glide_ligand_efficiency_sa>
-0.916472595224668

> <r_i_glide_ligand_efficiency_ln>
-1.85730294082902

> <r_i_glide_gscore>
-7.83573047652017

> <r_i_glide_lipo>
-2.99706007377155

> <r_i_glide_hbond>
-0.32

> <r_i_glide_metal>
0

> <r_i_glide_rewards>
-2.12251886464439

> <r_i_glide_evdw>
-40.8048896789551

> <r_i_glide_ecoul>
-3.9039363861084

> <r_i_glide_erotb>
0.293339773347358

> <r_i_glide_esite>
-0.0636563695875729

> <r_i_glide_emodel>
-47.9170305739522

> <r_i_glide_energy>
-44.7088260650635

> <r_i_glide_einternal>
2.77895998954773

> <i_i_glide_confnum>
3

> <i_i_glide_posenum>
386

> <r_i_glide_eff_state_penalty>
0

> <PMID>
27234887

> <r_glide_shape_similarity>
0.826046347618103

> <s_m_subgroup_title>
505 training

> <s_m_subgroupid>
pocket_pv

> <b_m_subgroup_collapsed>
0

$$$$
BindingDB_50439333_mol_1
                    3D
 Schrodinger Suite 2021-2.
 47 51  0  0  1  0            999 V2000
   19.1331   -1.2841   53.7736 C   0  0  0  0  0  0
   20.5922    0.5692   52.2751 C   0  0  0  0  0  0
   21.2352   -0.1957   53.2785 C   0  0  0  0  0  0
   20.5169   -1.1647   54.0208 C   0  0  0  0  0  0
   21.1374   -1.9068   54.9732 N   0  0  0  0  0  0
   22.4334   -1.6780   55.1899 C   0  0  0  0  0  0
   23.1813   -0.7738   54.5772 N   0  0  0  0  0  0
   22.5899   -0.0091   53.6353 C   0  0  0  0  0  0
   23.2924    1.0696   53.0809 N   0  0  0  0  0  0
   24.6501    1.4031   53.1404 C   0  0  0  0  0  0
   25.6466    0.4893   53.5163 C   0  0  0  0  0  0
   27.0135    0.7826   53.3524 C   0  0  0  0  0  0
   27.4130    2.0751   52.9692 C   0  0  0  0  0  0
   26.4165    2.9909   52.5954 C   0  0  0  0  0  0
   25.0465    2.6743   52.6821 C   0  0  0  0  0  0
   27.9551   -0.3238   53.3979 C   0  0  0  0  0  0
   29.3022   -0.1542   53.7842 C   0  0  0  0  0  0
   30.1653   -1.2659   53.7750 C   0  0  0  0  0  0
   29.6748   -2.5299   53.3747 C   0  0  0  0  0  0
   28.3511   -2.7080   52.9747 C   0  0  0  0  0  0
   27.5012   -1.6013   52.9756 C   0  0  0  0  0  0
   19.2084    0.4562   52.0423 C   0  0  0  0  0  0
   18.4471   -0.4663   52.8384 C   0  0  0  0  0  0
   17.0685   -0.5182   52.9647 O   0  0  0  0  0  0
   18.7298    1.3828   51.1371 O   0  0  0  0  0  0
   16.1955   -0.3811   51.8552 C   0  0  0  0  0  0
   17.6035    1.0706   50.3313 C   0  0  0  0  0  0
   16.3065    0.9711   51.1500 C   0  0  0  0  0  0
   18.5633   -1.9589   54.3943 H   0  0  0  0  0  0
   21.1380    1.3004   51.7003 H   0  0  0  0  0  0
   22.9204   -2.2790   55.9445 H   0  0  0  0  0  0
   22.7192    1.7184   52.5609 H   0  0  0  0  0  0
   25.3829   -0.5029   53.8248 H   0  0  0  0  0  0
   28.4547    2.3275   52.8380 H   0  0  0  0  0  0
   26.7000    3.9336   52.1734 H   0  0  0  0  0  0
   24.3134    3.3979   52.3571 H   0  0  0  0  0  0
   29.6801    0.8065   54.1019 H   0  0  0  0  0  0
   31.1872   -1.1549   54.1027 H   0  0  0  0  0  0
   30.2888   -3.4067   53.4108 H   0  0  0  0  0  0
   27.9904   -3.6757   52.6632 H   0  0  0  0  0  0
   26.4987   -1.7657   52.6123 H   0  0  0  0  0  0
   16.3520   -1.2025   51.1556 H   0  0  0  0  0  0
   15.1831   -0.5019   52.2428 H   0  0  0  0  0  0
   17.7844    0.1568   49.7636 H   0  0  0  0  0  0
   17.5022    1.8738   49.6011 H   0  0  0  0  0  0
   15.4644    1.0725   50.4650 H   0  0  0  0  0  0
   16.2271    1.7977   51.8547 H   0  0  0  0  0  0
  1  4  1  0  0  0
  1 23  2  0  0  0
  1 29  1  0  0  0
  2  3  1  0  0  0
  2 22  2  0  0  0
  2 30  1  0  0  0
  3  4  1  0  0  0
  3  8  2  0  0  0
  4  5  2  0  0  0
  5  6  1  0  0  0
  6  7  2  0  0  0
  6 31  1  0  0  0
  7  8  1  0  0  0
  8  9  1  0  0  0
  9 10  1  0  0  0
  9 32  1  0  0  0
 10 11  2  0  0  0
 10 15  1  0  0  0
 11 12  1  0  0  0
 11 33  1  0  0  0
 12 13  2  0  0  0
 12 16  1  0  0  0
 13 14  1  0  0  0
 13 34  1  0  0  0
 14 15  2  0  0  0
 14 35  1  0  0  0
 15 36  1  0  0  0
 16 17  2  0  0  0
 16 21  1  0  0  0
 17 18  1  0  0  0
 17 37  1  0  0  0
 18 19  2  0  0  0
 18 38  1  0  0  0
 19 20  1  0  0  0
 19 39  1  0  0  0
 20 21  2  0  0  0
 20 40  1  0  0  0
 21 41  1  0  0  0
 22 23  1  0  0  0
 22 25  1  0  0  0
 23 24  1  0  0  0
 24 26  1  0  0  0
 25 27  1  0  0  0
 26 28  1  0  0  0
 26 42  1  0  0  0
 26 43  1  0  0  0
 27 28  1  0  0  0
 27 44  1  0  0  0
 27 45  1  0  0  0
 28 46  1  0  0  0
 28 47  1  0  0  0
M  END
> <s_m_entry_id>
270

> <s_m_entry_name>
pocket_pv.81

> <s_m_Source_Path>
/home/bortolaa/Project/GT/mario-master/docking/set505protein_struct_1_site_1_set505ligs_train

> <s_m_Source_File>
pocket_pv.maegz

> <i_m_Source_File_Index>
81

> <From>
www.bindingDB.org

> <BindingDB Reactant_set_id>
50110015

> <Ligand InChI>
InChI=1S/C23H19N3O2/c1-2-6-16(7-3-1)17-8-4-9-18(12-17)26-23-19-13-21-22(28-11-5-10-27-21)14-20(19)24-15-25-23/h1-4,6-9,12-15H,5,10-11H2,(H,24,25,26)

> <Ligand InChI Key>
WRSMBOCJQHDXNC-UHFFFAOYSA-N

> <BindingDB MonomerID>
50439333

> <BindingDB Ligand Name>
CHEMBL2419762

> <Target Name Assigned by Curator or DataSource>
Epidermal growth factor receptor

> <Target Source Organism According to Curator or DataSource>
Homo sapiens

> <Ki (nM)>


> <Kd (nM)>


> <EC50 (nM)>


> <kon (M-1-s-1)>


> <koff (s-1)>


> <pH>


> <Temp C>


> <Curation/DataSource>
ChEMBL

> <Article DOI>
10.1021/jm500034j

> <PubChem AID>


> <Patent Number>


> <Authors>
Marzaro, G; Coluccia, A; Ferrarese, A; Brun, P; Castagliuolo, I; Conconi, MT; La Regina, G; Bai, R; Silvestri, R; Hamel, E; Chilin, A

> <Institution>
Universit&#163; degli Studi di Padova

> <Link to Ligand in BindingDB>
http://www.bindingdb.org/bind/chemsearch/marvin/MolStructure.jsp?monomerid=50439333

> <Link to Ligand-Target Pair in BindingDB>
http://www.bindingdb.org/jsp/dbsearch/PrimarySearch_ki.jsp?energyterm=kJ/mole&tag=r21&monomerid=50439333&enzyme=Epidermal+growth+factor+receptor&column=ki&startPg=0&Increment=50&submit=Search

> <Ligand HET ID in PDB>


> <PDB ID(s) for Ligand-Target Complex>


> <PubChem CID>
66559005

> <PubChem SID>
175451650

> <ChEBI ID of Ligand>


> <ChEMBL ID of Ligand>
CHEMBL2419762

> <DrugBank ID of Ligand>


> <IUPHAR_GRAC ID of Ligand>


> <KEGG ID of Ligand>


> <ZINC ID of Ligand>
ZINC96283120

> <Number of Protein Chains in Target (>
1

> <BindingDB Target Chain Sequence>
MRPSGTAGAALLALLAALCPASRALEEKKVCQGTSNKLTQLGTFEDHFLSLQRMFNNCEVVLGNLEITYVQRNYDLSFLKTIQEVAGYVLIALNTVERIPLENLQIIRGNMYYENSYALAVLSNYDANKTGLKELPMRNLQEILHGAVRFSNNPALCNVESIQWRDIVSSDFLSNMSMDFQNHLGSCQKCDPSCPNGSCWGAGEENCQKLTKIICAQQCSGRCRGKSPSDCCHNQCAAGCTGPRESDCLVCRKFRDEATCKDTCPPLMLYNPTTYQMDVNPEGKYSFGATCVKKCPRNYVVTDHGSCVRACGADSYEMEEDGVRKCKKCEGPCRKVCNGIGIGEFKDSLSINATNIKHFKNCTSISGDLHILPVAFRGDSFTHTPPLDPQELDILKTVKEITGFLLIQAWPENRTDLHAFENLEIIRGRTKQHGQFSLAVVSLNITSLGLRSLKEISDGDVIISGNKNLCYANTINWKKLFGTSGQKTKIISNRGENSCKATGQVCHALCSPEGCWGPEPRDCVSCRNVSRGRECVDKCNLLEGEPREFVENSECIQCHPECLPQAMNITCTGRGPDNCIQCAHYIDGPHCVKTCPAGVMGENNTLVWKYADAGHVCHLCHPNCTYGCTGPGLEGCPTNGPKIPSIATGMVGALLLLLVVALGIGLFMRRRHIVRKRTLRRLLQERELVEPLTPSGEAPNQALLRILKETEFKKIKVLGSGAFGTVYKGLWIPEGEKVKIPVAIKELREATSPKANKEILDEAYVMASVDNPHVCRLLGICLTSTVQLITQLMPFGCLLDYVREHKDNIGSQYLLNWCVQIAKGMNYLEDRRLVHRDLAARNVLVKTPQHVKITDFGLAKLLGAEEKEYHAEGGKVPIKWMALESILHRIYTHQSDVWSYGVTVWELMTFGSKPYDGIPASEISSILEKGERLPQPPICTIDVYMIMVKCWMIDADSRPKFRELIIEFSKMARDPQRYLVIQGDERMHLPSPTDSNFYRALMDEEDMDDVVDADEYLIPQQGFFSSPSTSRTPLLSSLSATSNNSTVACIDRNGLQSCPIKEDSFLQRYSSDPTGALTEDSIDDTFLPVPEYINQSVPKRPAGSVQNPVYHNQPLNPAPSRDPHYQDPHSTAVGNPEYLNTVQPTCVNSTFDSPAHWAQKGSHQISLDNPDYQQDFFPKEAKPNGIFKGSTAENAEYLRVAPQSSEFIGA

> <PDB ID(s) of Target Chain>
1IVO,1M14,1M17,1MOX,1XKK,1Z9I,2GS2,2GS6,2ITW,2ITX,2ITY,2J5E,2J5F,2J6M,2RF9,2RGP,3B2V,3BEL,3GOP,3POZ,3QWQ,3VJO,3W2O,3W2P,3W2Q,3W2R,3W2S,3W32,3W33,4G5J,4I23,4JQ7,4JQ8,4JR3,4JRV,4KRO,4LI5,4RJ4,4RJ5,4RJ6,4RJ7,4RJ8,4TKS,4UIP,4UV7,4WKQ,4WRG,4ZAU,5C8K,5C8M,5C8N,5CAL,5CAN,5CAO,5CAP,5CAQ,5CAS,5CAU,5CAV,5EDP,5EDQ,5EDR,5EM5,5EM6,5EM7,5EM8,5FED,5GNK,5HCX,5HCY,5HCZ,5HIB,5HIC,5UGB,5WB7,5WB8,5Y25,6S89,6S8A

> <UniProt (SwissProt) Recommended Name of Target Chain>
Epidermal growth factor receptor

> <UniProt (SwissProt) Entry Name of Target Chain>
EGFR_HUMAN

> <UniProt (SwissProt) Primary ID of Target Chain>
P00533

> <UniProt (SwissProt) Secondary ID(s) of Target Chain>
O00688,O00732,P06268,Q14225,Q68GS5,Q92795,Q9BZS2,Q9GZX1,Q9H2C9,Q9H3C9,Q9UMD7,Q9UMD8,Q9UMG5

> <UniProt (SwissProt) Alternative ID(s) of Target Chain>


> <UniProt (TrEMBL) Submitted Name of Target Chain>


> <UniProt (TrEMBL) Entry Name of Target Chain>


> <UniProt (TrEMBL) Primary ID of Target Chain>


> <UniProt (TrEMBL) Secondary ID(s) of Target Chain>


> <UniProt (TrEMBL) Alternative ID(s) of Target Chain>


> <training label>
7.56864

> <i_lp_mmshare_version>
54117

> <s_epik_input>
TzFbQ0gyXVtDSDJdW0NIMl1PYyhbY0hdMiljMVtjSF1jKGMyMyluW2NIXW5jM1tOSF1jNFtjSF1jKFtjSF1bY0hdW2NIXTQpLWM1W2NIXVtjSF1bY0hdW2NIXVtjSF01

> <s_epik_cmdline>
J2VwaWtfcHl0aG9uJywgJy1waHQnLCAnMC4xJywgJy1waCcsICc3LjQnLCAnLXRuJywgJzgnLCAnLW1hJywgJzIwMCcsICctaW1hZScsICc8aW5maWxlLm1hZT4nLCAnLW9tYWUnLCAnPG91dGZpbGUubWFlPic=

> <r_lp_tautomer_probability>
1

> <r_epik_Ionization_Penalty>
  0.0006

> <r_epik_Ionization_Penalty_Charging>
  0.0000

> <r_epik_Ionization_Penalty_Neutral>
  0.0006

> <r_epik_State_Penalty>
  0.0000

> <r_epik_Charging_Adjusted_Penalty>
0

> <i_epik_Tot_Q>
0

> <i_epik_Tot_abs_Q>
0

> <i_f3d_flags>
0

> <s_lp_Force_Field>
OPLS_2005

> <r_lp_Energy>
33.526985

> <b_lp_Chiralities_Consistent>
1

> <s_lp_Variant>
BindingDB_50439333_mol_1-1

> <s_i_glide_gridfile>
struct_1_site_1

> <i_i_glide_lignum>
202

> <i_i_glide_rotatable_bonds>
3

> <r_i_docking_score>
-7.83387849715453

> <r_i_glide_ligand_efficiency>
-0.279781374898376

> <r_i_glide_ligand_efficiency_sa>
-0.849581036608959

> <r_i_glide_ligand_efficiency_ln>
-1.80828916981062

> <r_i_glide_gscore>
-7.83387849715453

> <r_i_glide_lipo>
-3.56187369695524

> <r_i_glide_hbond>
-0.32

> <r_i_glide_metal>
0

> <r_i_glide_rewards>
-1.65661701881986

> <r_i_glide_evdw>
-40.3941764831543

> <r_i_glide_ecoul>
-4.66353845596313

> <r_i_glide_erotb>
0.423851811172754

> <r_i_glide_esite>
0

> <r_i_glide_emodel>
-42.9405988810655

> <r_i_glide_energy>
-45.0577149391174

> <r_i_glide_einternal>
2.65949606895447

> <i_i_glide_confnum>
148

> <i_i_glide_posenum>
15

> <r_i_glide_eff_state_penalty>
0

> <IC50 (nM)>
27

> <PMID>
24801610

> <r_glide_shape_similarity>
0.771507441997528

> <s_m_subgroup_title>
505 training

> <s_m_subgroupid>
pocket_pv

> <b_m_subgroup_collapsed>
0

$$$$
BindingDB_3546_mol_1
                    3D
 Schrodinger Suite 2021-2.
 34 36  0  0  1  0            999 V2000
   21.5208    0.6447   52.5030 C   0  0  0  0  0  0
   19.9090   -1.2061   53.8401 C   0  0  0  0  0  0
   22.0757   -0.1674   53.5052 C   0  0  0  0  0  0
   21.2711   -1.1081   54.1811 C   0  0  0  0  0  0
   23.4394   -0.0938   53.8658 C   0  0  0  0  0  0
   23.0958   -1.7202   55.4106 C   0  0  0  0  0  0
   23.9393   -0.8884   54.8226 N   0  0  0  0  0  0
   21.8066   -1.8869   55.1376 N   0  0  0  0  0  0
   24.2918    0.8489   53.2758 N   0  0  0  0  0  0
   23.8253    1.6222   52.8359 H   0  0  0  0  0  0
   25.6866    0.9466   53.3431 C   0  0  0  0  0  0
   27.6702    2.3599   53.4241 C   0  0  0  0  0  0
   26.2735    2.2237   53.3711 C   0  0  0  0  0  0
   26.5155   -0.1895   53.3351 C   0  0  0  0  0  0
   28.4911    1.2249   53.4380 C   0  0  0  0  0  0
   20.1728    0.5203   52.1590 C   0  0  0  0  0  0
   27.9102   -0.0497   53.3836 C   0  0  0  0  0  0
   29.0139   -1.5888   53.3746 Br  0  0  0  0  0  0
   19.3440   -0.3874   52.8358 C   0  0  0  0  0  0
   19.6608    1.3116   51.1403 N   0  0  0  0  0  0
   17.1125   -1.1536   53.2262 C   0  0  0  0  0  0
   18.0230   -0.4080   52.4521 O   0  0  0  0  0  0
   22.1293    1.3552   51.9644 H   0  0  0  0  0  0
   19.3074   -1.9166   54.3824 H   0  0  0  0  0  0
   23.5108   -2.3581   56.1741 H   0  0  0  0  0  0
   28.1085    3.3460   53.4487 H   0  0  0  0  0  0
   25.6625    3.1156   53.3610 H   0  0  0  0  0  0
   26.0903   -1.1821   53.2909 H   0  0  0  0  0  0
   29.5683    1.3324   53.4828 H   0  0  0  0  0  0
   20.2732    1.7790   50.4898 H   0  0  0  0  0  0
   18.7412    1.0970   50.7914 H   0  0  0  0  0  0
   16.1006   -0.9748   52.8640 H   0  0  0  0  0  0
   17.1427   -0.8661   54.2756 H   0  0  0  0  0  0
   17.3127   -2.2213   53.1430 H   0  0  0  0  0  0
  1  3  1  0  0  0
  1 16  2  0  0  0
  1 23  1  0  0  0
  2  4  1  0  0  0
  2 19  2  0  0  0
  2 24  1  0  0  0
  3  4  1  0  0  0
  3  5  2  0  0  0
  4  8  2  0  0  0
  5  7  1  0  0  0
  5  9  1  0  0  0
  6  7  2  0  0  0
  6  8  1  0  0  0
  6 25  1  0  0  0
  9 10  1  0  0  0
  9 11  1  0  0  0
 11 13  2  0  0  0
 11 14  1  0  0  0
 12 13  1  0  0  0
 12 15  2  0  0  0
 12 26  1  0  0  0
 13 27  1  0  0  0
 14 17  2  0  0  0
 14 28  1  0  0  0
 15 17  1  0  0  0
 15 29  1  0  0  0
 16 19  1  0  0  0
 16 20  1  0  0  0
 17 18  1  0  0  0
 19 22  1  0  0  0
 20 30  1  0  0  0
 20 31  1  0  0  0
 21 22  1  0  0  0
 21 32  1  0  0  0
 21 33  1  0  0  0
 21 34  1  0  0  0
M  END
> <s_m_entry_id>
271

> <s_m_entry_name>
pocket_pv.82

> <s_m_Source_Path>
/home/bortolaa/Project/GT/mario-master/docking/set505protein_struct_1_site_1_set505ligs_train

> <s_m_Source_File>
pocket_pv.maegz

> <i_m_Source_File_Index>
82

> <From>
www.bindingDB.org

> <BindingDB Reactant_set_id>
5308

> <Ligand InChI>
InChI=1S/C15H13BrN4O/c1-21-14-7-13-11(6-12(14)17)15(19-8-18-13)20-10-4-2-3-9(16)5-10/h2-8H,17H2,1H3,(H,18,19,20)

> <Ligand InChI Key>
VQTRWXQSANIXPR-UHFFFAOYSA-N

> <BindingDB MonomerID>
3546

> <BindingDB Ligand Name>
4-N-(3-bromophenyl)-7-methoxyquinazoline-4,6-diamine::CHEMBL96780::PD153035 Analog 46

> <Target Name Assigned by Curator or DataSource>
Epidermal growth factor receptor

> <Target Source Organism According to Curator or DataSource>
Homo sapiens

> <Ki (nM)>


> <Kd (nM)>


> <EC50 (nM)>


> <kon (M-1-s-1)>


> <koff (s-1)>


> <pH>


> <Temp C>


> <Curation/DataSource>
Curated from the literature by BindingDB

> <Article DOI>
10.1021/bi060184f

> <PMID>


> <PubChem AID>


> <Patent Number>


> <Authors>
Bridges, AJ; Zhou, HR; Cody, DR; Rewcastle, GW; McMichael, A; Showalter, HH; Fry, DW; Kraker, AJ; Denny, WA

> <Institution>
Parke-Davis Pharmaceutical Research

> <Link to Ligand in BindingDB>
http://www.bindingdb.org/bind/chemsearch/marvin/MolStructure.jsp?monomerid=3546

> <Link to Ligand-Target Pair in BindingDB>
http://www.bindingdb.org/jsp/dbsearch/PrimarySearch_ki.jsp?energyterm=kJ/mole&tag=r21&monomerid=3546&enzyme=Epidermal+growth+factor+receptor&column=ki&startPg=0&Increment=50&submit=Search

> <Ligand HET ID in PDB>


> <PDB ID(s) for Ligand-Target Complex>


> <PubChem CID>
5328212

> <PubChem SID>
8033270

> <ChEBI ID of Ligand>


> <ChEMBL ID of Ligand>
CHEMBL96780

> <DrugBank ID of Ligand>


> <IUPHAR_GRAC ID of Ligand>


> <KEGG ID of Ligand>


> <ZINC ID of Ligand>
ZINC03815136

> <Number of Protein Chains in Target (>
1

> <BindingDB Target Chain Sequence>
MRPSGTAGAALLALLAALCPASRALEEKKVCQGTSNKLTQLGTFEDHFLSLQRMFNNCEVVLGNLEITYVQRNYDLSFLKTIQEVAGYVLIALNTVERIPLENLQIIRGNMYYENSYALAVLSNYDANKTGLKELPMRNLQEILHGAVRFSNNPALCNVESIQWRDIVSSDFLSNMSMDFQNHLGSCQKCDPSCPNGSCWGAGEENCQKLTKIICAQQCSGRCRGKSPSDCCHNQCAAGCTGPRESDCLVCRKFRDEATCKDTCPPLMLYNPTTYQMDVNPEGKYSFGATCVKKCPRNYVVTDHGSCVRACGADSYEMEEDGVRKCKKCEGPCRKVCNGIGIGEFKDSLSINATNIKHFKNCTSISGDLHILPVAFRGDSFTHTPPLDPQELDILKTVKEITGFLLIQAWPENRTDLHAFENLEIIRGRTKQHGQFSLAVVSLNITSLGLRSLKEISDGDVIISGNKNLCYANTINWKKLFGTSGQKTKIISNRGENSCKATGQVCHALCSPEGCWGPEPRDCVSCRNVSRGRECVDKCNLLEGEPREFVENSECIQCHPECLPQAMNITCTGRGPDNCIQCAHYIDGPHCVKTCPAGVMGENNTLVWKYADAGHVCHLCHPNCTYGCTGPGLEGCPTNGPKIPSIATGMVGALLLLLVVALGIGLFMRRRHIVRKRTLRRLLQERELVEPLTPSGEAPNQALLRILKETEFKKIKVLGSGAFGTVYKGLWIPEGEKVKIPVAIKELREATSPKANKEILDEAYVMASVDNPHVCRLLGICLTSTVQLITQLMPFGCLLDYVREHKDNIGSQYLLNWCVQIAKGMNYLEDRRLVHRDLAARNVLVKTPQHVKITDFGLAKLLGAEEKEYHAEGGKVPIKWMALESILHRIYTHQSDVWSYGVTVWELMTFGSKPYDGIPASEISSILEKGERLPQPPICTIDVYMIMVKCWMIDADSRPKFRELIIEFSKMARDPQRYLVIQGDERMHLPSPTDSNFYRALMDEEDMDDVVDADEYLIPQQGFFSSPSTSRTPLLSSLSATSNNSTVACIDRNGLQSCPIKEDSFLQRYSSDPTGALTEDSIDDTFLPVPEYINQSVPKRPAGSVQNPVYHNQPLNPAPSRDPHYQDPHSTAVGNPEYLNTVQPTCVNSTFDSPAHWAQKGSHQISLDNPDYQQDFFPKEAKPNGIFKGSTAENAEYLRVAPQSSEFIGA

> <PDB ID(s) of Target Chain>
1IVO,1M14,1M17,1MOX,1XKK,1Z9I,2GS2,2GS6,2ITW,2ITX,2ITY,2J5E,2J5F,2J6M,2RF9,2RGP,3B2V,3BEL,3GOP,3POZ,3QWQ,3VJO,3W2O,3W2P,3W2Q,3W2R,3W2S,3W32,3W33,4G5J,4I23,4JQ7,4JQ8,4JR3,4JRV,4KRO,4LI5,4RJ4,4RJ5,4RJ6,4RJ7,4RJ8,4TKS,4UIP,4UV7,4WKQ,4WRG,4ZAU,5C8K,5C8M,5C8N,5CAL,5CAN,5CAO,5CAP,5CAQ,5CAS,5CAU,5CAV,5EDP,5EDQ,5EDR,5EM5,5EM6,5EM7,5EM8,5FED,5GNK,5HCX,5HCY,5HCZ,5HIB,5HIC,5UGB,5WB7,5WB8,5Y25,6S89,6S8A

> <UniProt (SwissProt) Recommended Name of Target Chain>
Epidermal growth factor receptor

> <UniProt (SwissProt) Entry Name of Target Chain>
EGFR_HUMAN

> <UniProt (SwissProt) Primary ID of Target Chain>
P00533

> <UniProt (SwissProt) Secondary ID(s) of Target Chain>
O00688,O00732,P06268,Q14225,Q68GS5,Q92795,Q9BZS2,Q9GZX1,Q9H2C9,Q9H3C9,Q9UMD7,Q9UMD8,Q9UMG5

> <UniProt (SwissProt) Alternative ID(s) of Target Chain>


> <UniProt (TrEMBL) Submitted Name of Target Chain>


> <UniProt (TrEMBL) Entry Name of Target Chain>


> <UniProt (TrEMBL) Primary ID of Target Chain>


> <UniProt (TrEMBL) Secondary ID(s) of Target Chain>


> <UniProt (TrEMBL) Alternative ID(s) of Target Chain>


> <training label>
8.42022

> <i_lp_mmshare_version>
54117

> <s_epik_input>
W2NIXTFjKFtOSDJdKWMoT1tDSDNdKVtjSF1jKGMxMiluW2NIXW5jMltOSF1jM1tjSF1bY0hdW2NIXWMoQnIpW2NIXTM=

> <s_epik_cmdline>
J2VwaWtfcHl0aG9uJywgJy1waHQnLCAnMC4xJywgJy1waCcsICc3LjQnLCAnLXRuJywgJzgnLCAnLW1hJywgJzIwMCcsICctaW1hZScsICc8aW5maWxlLm1hZT4nLCAnLW9tYWUnLCAnPG91dGZpbGUubWFlPic=

> <r_lp_tautomer_probability>
1

> <r_epik_Ionization_Penalty>
  0.0013

> <r_epik_Ionization_Penalty_Charging>
  0.0000

> <r_epik_Ionization_Penalty_Neutral>
  0.0013

> <r_epik_State_Penalty>
  0.0000

> <r_epik_Charging_Adjusted_Penalty>
0

> <i_epik_Tot_Q>
0

> <i_epik_Tot_abs_Q>
0

> <i_f3d_flags>
0

> <s_lp_Force_Field>
OPLS_2005

> <r_lp_Energy>
15.558773

> <b_lp_Chiralities_Consistent>
1

> <s_lp_Variant>
BindingDB_3546_mol_1-1

> <s_i_glide_gridfile>
struct_1_site_1

> <i_i_glide_lignum>
260

> <i_i_glide_rotatable_bonds>
3

> <r_i_docking_score>
-7.83284228596472

> <r_i_glide_ligand_efficiency>
-0.372992489807844

> <r_i_glide_ligand_efficiency_sa>
-1.02905799669512

> <r_i_glide_ligand_efficiency_ln>
-1.93665442745662

> <r_i_glide_gscore>
-7.83284228596472

> <r_i_glide_lipo>
-2.80739090974783

> <r_i_glide_hbond>
-0.32

> <r_i_glide_metal>
0

> <r_i_glide_rewards>
-2.22595494606166

> <r_i_glide_evdw>
-39.832202911377

> <r_i_glide_ecoul>
-5.37822866439819

> <r_i_glide_erotb>
0.318848015073346

> <r_i_glide_esite>
0

> <r_i_glide_emodel>
-46.1043530873028

> <r_i_glide_energy>
-45.2104315757751

> <r_i_glide_einternal>
1.33273041248322

> <i_i_glide_confnum>
1

> <i_i_glide_posenum>
350

> <r_i_glide_eff_state_penalty>
0

> <IC50 (nM)>
3.8

> <r_glide_shape_similarity>
0.787648260593414

> <s_m_subgroup_title>
505 training

> <s_m_subgroupid>
pocket_pv

> <b_m_subgroup_collapsed>
0

$$$$
BindingDB_50439334_mol_1
                    3D
 Schrodinger Suite 2021-2.
 44 48  0  0  1  0            999 V2000
   19.0653   -1.4617   53.7749 C   0  0  0  0  0  0
   20.3966    0.5447   52.3100 C   0  0  0  0  0  0
   21.0981   -0.2030   53.2963 C   0  0  0  0  0  0
   20.4356   -1.2273   54.0294 C   0  0  0  0  0  0
   21.0948   -1.9478   54.9714 N   0  0  0  0  0  0
   22.3799   -1.6693   55.1839 C   0  0  0  0  0  0
   23.0816   -0.7274   54.5750 N   0  0  0  0  0  0
   22.4605    0.0142   53.6286 C   0  0  0  0  0  0
   23.1652    1.0708   53.0303 N   0  0  0  0  0  0
   24.5309    1.3955   53.0879 C   0  0  0  0  0  0
   25.5292    0.4693   53.4478 C   0  0  0  0  0  0
   26.9021    0.7696   53.3243 C   0  0  0  0  0  0
   27.3024    2.0686   52.9644 C   0  0  0  0  0  0
   26.3126    2.9894   52.5835 C   0  0  0  0  0  0
   24.9395    2.6750   52.6535 C   0  0  0  0  0  0
   18.3437   -0.6919   52.8345 C   0  0  0  0  0  0
   19.0250    0.3035   52.0753 C   0  0  0  0  0  0
   18.3572    1.0617   51.1324 O   0  0  0  0  0  0
   17.0515    0.5728   50.7766 C   0  0  0  0  0  0
   16.2583    0.1252   52.0293 C   0  0  0  0  0  0
   16.9820   -0.9114   52.6973 O   0  0  0  0  0  0
   27.8645   -0.3235   53.3877 C   0  0  0  0  0  0
   27.4405   -1.6141   52.9748 C   0  0  0  0  0  0
   28.3187   -2.7023   52.9751 C   0  0  0  0  0  0
   29.6407   -2.4976   53.3753 C   0  0  0  0  0  0
   30.0989   -1.2235   53.7748 C   0  0  0  0  0  0
   29.2086   -0.1312   53.7808 C   0  0  0  0  0  0
   18.5377   -2.2060   54.3518 H   0  0  0  0  0  0
   20.8897    1.3074   51.7266 H   0  0  0  0  0  0
   22.8972   -2.2495   55.9344 H   0  0  0  0  0  0
   22.5930    1.7233   52.5113 H   0  0  0  0  0  0
   25.2592   -0.5316   53.7269 H   0  0  0  0  0  0
   28.3456    2.3225   52.8543 H   0  0  0  0  0  0
   26.6107    3.9334   52.1736 H   0  0  0  0  0  0
   24.2188    3.4136   52.3324 H   0  0  0  0  0  0
   17.1489   -0.2609   50.0780 H   0  0  0  0  0  0
   16.5096    1.3564   50.2473 H   0  0  0  0  0  0
   15.2693   -0.2449   51.7510 H   0  0  0  0  0  0
   16.1098    0.9652   52.7029 H   0  0  0  0  0  0
   26.4403   -1.8071   52.6267 H   0  0  0  0  0  0
   27.9784   -3.6770   52.6642 H   0  0  0  0  0  0
   30.2889   -3.3500   53.4015 H   0  0  0  0  0  0
   31.1243   -1.0827   54.0900 H   0  0  0  0  0  0
   29.5685    0.8367   54.0992 H   0  0  0  0  0  0
  1  4  1  0  0  0
  1 16  2  0  0  0
  1 28  1  0  0  0
  2  3  1  0  0  0
  2 17  2  0  0  0
  2 29  1  0  0  0
  3  4  1  0  0  0
  3  8  2  0  0  0
  4  5  2  0  0  0
  5  6  1  0  0  0
  6  7  2  0  0  0
  6 30  1  0  0  0
  7  8  1  0  0  0
  8  9  1  0  0  0
  9 10  1  0  0  0
  9 31  1  0  0  0
 10 11  2  0  0  0
 10 15  1  0  0  0
 11 12  1  0  0  0
 11 32  1  0  0  0
 12 13  2  0  0  0
 12 22  1  0  0  0
 13 14  1  0  0  0
 13 33  1  0  0  0
 14 15  2  0  0  0
 14 34  1  0  0  0
 15 35  1  0  0  0
 16 17  1  0  0  0
 16 21  1  0  0  0
 17 18  1  0  0  0
 18 19  1  0  0  0
 19 20  1  0  0  0
 19 36  1  0  0  0
 19 37  1  0  0  0
 20 21  1  0  0  0
 20 38  1  0  0  0
 20 39  1  0  0  0
 22 23  2  0  0  0
 22 27  1  0  0  0
 23 24  1  0  0  0
 23 40  1  0  0  0
 24 25  2  0  0  0
 24 41  1  0  0  0
 25 26  1  0  0  0
 25 42  1  0  0  0
 26 27  2  0  0  0
 26 43  1  0  0  0
 27 44  1  0  0  0
M  END
> <s_m_entry_id>
272

> <s_m_entry_name>
pocket_pv.83

> <s_m_Source_Path>
/home/bortolaa/Project/GT/mario-master/docking/set505protein_struct_1_site_1_set505ligs_train

> <s_m_Source_File>
pocket_pv.maegz

> <i_m_Source_File_Index>
83

> <From>
www.bindingDB.org

> <BindingDB Reactant_set_id>
50110014

> <Ligand InChI>
InChI=1S/C22H17N3O2/c1-2-5-15(6-3-1)16-7-4-8-17(11-16)25-22-18-12-20-21(27-10-9-26-20)13-19(18)23-14-24-22/h1-8,11-14H,9-10H2,(H,23,24,25)

> <Ligand InChI Key>
FSFYBWMHVKFOOV-UHFFFAOYSA-N

> <BindingDB MonomerID>
50439334

> <BindingDB Ligand Name>
CHEMBL2419761

> <Target Name Assigned by Curator or DataSource>
Epidermal growth factor receptor

> <Target Source Organism According to Curator or DataSource>
Homo sapiens

> <Ki (nM)>


> <Kd (nM)>


> <EC50 (nM)>


> <kon (M-1-s-1)>


> <koff (s-1)>


> <pH>


> <Temp C>


> <Curation/DataSource>
ChEMBL

> <Article DOI>
10.1021/jm500034j

> <PubChem AID>


> <Patent Number>


> <Authors>
Marzaro, G; Coluccia, A; Ferrarese, A; Brun, P; Castagliuolo, I; Conconi, MT; La Regina, G; Bai, R; Silvestri, R; Hamel, E; Chilin, A

> <Institution>
Universit&#163; degli Studi di Padova

> <Link to Ligand in BindingDB>
http://www.bindingdb.org/bind/chemsearch/marvin/MolStructure.jsp?monomerid=50439334

> <Link to Ligand-Target Pair in BindingDB>
http://www.bindingdb.org/jsp/dbsearch/PrimarySearch_ki.jsp?energyterm=kJ/mole&tag=r21&monomerid=50439334&enzyme=Epidermal+growth+factor+receptor&column=ki&startPg=0&Increment=50&submit=Search

> <Ligand HET ID in PDB>


> <PDB ID(s) for Ligand-Target Complex>


> <PubChem CID>
42596931

> <PubChem SID>
175451651

> <ChEBI ID of Ligand>


> <ChEMBL ID of Ligand>
CHEMBL2419761

> <DrugBank ID of Ligand>


> <IUPHAR_GRAC ID of Ligand>


> <KEGG ID of Ligand>


> <ZINC ID of Ligand>
ZINC96283121

> <Number of Protein Chains in Target (>
1

> <BindingDB Target Chain Sequence>
MRPSGTAGAALLALLAALCPASRALEEKKVCQGTSNKLTQLGTFEDHFLSLQRMFNNCEVVLGNLEITYVQRNYDLSFLKTIQEVAGYVLIALNTVERIPLENLQIIRGNMYYENSYALAVLSNYDANKTGLKELPMRNLQEILHGAVRFSNNPALCNVESIQWRDIVSSDFLSNMSMDFQNHLGSCQKCDPSCPNGSCWGAGEENCQKLTKIICAQQCSGRCRGKSPSDCCHNQCAAGCTGPRESDCLVCRKFRDEATCKDTCPPLMLYNPTTYQMDVNPEGKYSFGATCVKKCPRNYVVTDHGSCVRACGADSYEMEEDGVRKCKKCEGPCRKVCNGIGIGEFKDSLSINATNIKHFKNCTSISGDLHILPVAFRGDSFTHTPPLDPQELDILKTVKEITGFLLIQAWPENRTDLHAFENLEIIRGRTKQHGQFSLAVVSLNITSLGLRSLKEISDGDVIISGNKNLCYANTINWKKLFGTSGQKTKIISNRGENSCKATGQVCHALCSPEGCWGPEPRDCVSCRNVSRGRECVDKCNLLEGEPREFVENSECIQCHPECLPQAMNITCTGRGPDNCIQCAHYIDGPHCVKTCPAGVMGENNTLVWKYADAGHVCHLCHPNCTYGCTGPGLEGCPTNGPKIPSIATGMVGALLLLLVVALGIGLFMRRRHIVRKRTLRRLLQERELVEPLTPSGEAPNQALLRILKETEFKKIKVLGSGAFGTVYKGLWIPEGEKVKIPVAIKELREATSPKANKEILDEAYVMASVDNPHVCRLLGICLTSTVQLITQLMPFGCLLDYVREHKDNIGSQYLLNWCVQIAKGMNYLEDRRLVHRDLAARNVLVKTPQHVKITDFGLAKLLGAEEKEYHAEGGKVPIKWMALESILHRIYTHQSDVWSYGVTVWELMTFGSKPYDGIPASEISSILEKGERLPQPPICTIDVYMIMVKCWMIDADSRPKFRELIIEFSKMARDPQRYLVIQGDERMHLPSPTDSNFYRALMDEEDMDDVVDADEYLIPQQGFFSSPSTSRTPLLSSLSATSNNSTVACIDRNGLQSCPIKEDSFLQRYSSDPTGALTEDSIDDTFLPVPEYINQSVPKRPAGSVQNPVYHNQPLNPAPSRDPHYQDPHSTAVGNPEYLNTVQPTCVNSTFDSPAHWAQKGSHQISLDNPDYQQDFFPKEAKPNGIFKGSTAENAEYLRVAPQSSEFIGA

> <PDB ID(s) of Target Chain>
1IVO,1M14,1M17,1MOX,1XKK,1Z9I,2GS2,2GS6,2ITW,2ITX,2ITY,2J5E,2J5F,2J6M,2RF9,2RGP,3B2V,3BEL,3GOP,3POZ,3QWQ,3VJO,3W2O,3W2P,3W2Q,3W2R,3W2S,3W32,3W33,4G5J,4I23,4JQ7,4JQ8,4JR3,4JRV,4KRO,4LI5,4RJ4,4RJ5,4RJ6,4RJ7,4RJ8,4TKS,4UIP,4UV7,4WKQ,4WRG,4ZAU,5C8K,5C8M,5C8N,5CAL,5CAN,5CAO,5CAP,5CAQ,5CAS,5CAU,5CAV,5EDP,5EDQ,5EDR,5EM5,5EM6,5EM7,5EM8,5FED,5GNK,5HCX,5HCY,5HCZ,5HIB,5HIC,5UGB,5WB7,5WB8,5Y25,6S89,6S8A

> <UniProt (SwissProt) Recommended Name of Target Chain>
Epidermal growth factor receptor

> <UniProt (SwissProt) Entry Name of Target Chain>
EGFR_HUMAN

> <UniProt (SwissProt) Primary ID of Target Chain>
P00533

> <UniProt (SwissProt) Secondary ID(s) of Target Chain>
O00688,O00732,P06268,Q14225,Q68GS5,Q92795,Q9BZS2,Q9GZX1,Q9H2C9,Q9H3C9,Q9UMD7,Q9UMD8,Q9UMG5

> <UniProt (SwissProt) Alternative ID(s) of Target Chain>


> <UniProt (TrEMBL) Submitted Name of Target Chain>


> <UniProt (TrEMBL) Entry Name of Target Chain>


> <UniProt (TrEMBL) Primary ID of Target Chain>


> <UniProt (TrEMBL) Secondary ID(s) of Target Chain>


> <UniProt (TrEMBL) Alternative ID(s) of Target Chain>


> <training label>
7.37675

> <i_lp_mmshare_version>
54117

> <s_epik_input>
TzFbQ0gyXVtDSDJdT2MoW2NIXTIpYzFbY0hdYyhjMjMpbltjSF1uYzNbTkhdYzRbY0hdYyhbY0hdW2NIXVtjSF00KS1jNVtjSF1bY0hdW2NIXVtjSF1bY0hdNQ==

> <s_epik_cmdline>
J2VwaWtfcHl0aG9uJywgJy1waHQnLCAnMC4xJywgJy1waCcsICc3LjQnLCAnLXRuJywgJzgnLCAnLW1hJywgJzIwMCcsICctaW1hZScsICc8aW5maWxlLm1hZT4nLCAnLW9tYWUnLCAnPG91dGZpbGUubWFlPic=

> <r_lp_tautomer_probability>
1

> <r_epik_Ionization_Penalty>
  0.0005

> <r_epik_Ionization_Penalty_Charging>
  0.0000

> <r_epik_Ionization_Penalty_Neutral>
  0.0005

> <r_epik_State_Penalty>
  0.0000

> <r_epik_Charging_Adjusted_Penalty>
0

> <i_epik_Tot_Q>
0

> <i_epik_Tot_abs_Q>
0

> <i_f3d_flags>
0

> <s_lp_Force_Field>
OPLS_2005

> <r_lp_Energy>
24.348392

> <b_lp_Chiralities_Consistent>
1

> <s_lp_Variant>
BindingDB_50439334_mol_1-1

> <s_i_glide_gridfile>
struct_1_site_1

> <i_i_glide_lignum>
192

> <i_i_glide_rotatable_bonds>
3

> <r_i_docking_score>
-7.83263789150186

> <r_i_glide_ligand_efficiency>
-0.290097699685254

> <r_i_glide_ligand_efficiency_sa>
-0.870293098099647

> <r_i_glide_ligand_efficiency_ln>
-1.82330897001385

> <r_i_glide_gscore>
-7.83263789150186

> <r_i_glide_lipo>
-3.53560705559287

> <r_i_glide_hbond>
-0.32

> <r_i_glide_metal>
0

> <r_i_glide_rewards>
-1.75415359163551

> <r_i_glide_evdw>
-40.4513664245605

> <r_i_glide_ecoul>
-4.36306571960449

> <r_i_glide_erotb>
0.454150934895219

> <r_i_glide_esite>
0

> <r_i_glide_emodel>
-43.9366300661113

> <r_i_glide_energy>
-44.814432144165

> <r_i_glide_einternal>
2.56790614128113

> <i_i_glide_confnum>
72

> <i_i_glide_posenum>
1

> <r_i_glide_eff_state_penalty>
0

> <IC50 (nM)>
42

> <PMID>
24801610

> <r_glide_shape_similarity>
0.776025831699371

> <s_m_subgroup_title>
505 training

> <s_m_subgroupid>
pocket_pv

> <b_m_subgroup_collapsed>
0

$$$$
4-Anilinoquinazoline
                    3D
 Schrodinger Suite 2021-2.
 55 58  0  0  1  0            999 V2000
   23.4483   -0.1032   53.8726 C   0  0  0  0  0  0
   23.0593   -1.7479   55.4249 C   0  0  0  0  0  0
   21.2397   -1.0841   54.1755 C   0  0  0  0  0  0
   22.0768   -0.1495   53.4944 C   0  0  0  0  0  0
   21.5438    0.6613   52.4658 C   0  0  0  0  0  0
   20.1796    0.5575   52.0984 C   0  0  0  0  0  0
   19.3251   -0.3336   52.7881 C   0  0  0  0  0  0
   19.8639   -1.1571   53.8180 C   0  0  0  0  0  0
   23.9152   -0.9126   54.8505 N   0  0  0  0  0  0
   21.7616   -1.8835   55.1383 N   0  0  0  0  0  0
   25.8006    0.5006   53.2448 C   0  0  0  0  0  0
   28.1165    1.2793   53.5402 C   0  0  0  0  0  0
   26.7293    1.5576   53.4253 C   0  0  0  0  0  0
   26.2996   -0.8218   53.0914 C   0  0  0  0  0  0
   27.6727   -1.1070   53.2221 C   0  0  0  0  0  0
   28.5758   -0.0608   53.4783 C   0  0  0  0  0  0
   26.2821    2.8280   53.5456 F   0  0  0  0  0  0
   24.4053    0.7338   53.2557 N   0  0  0  0  0  0
   24.0872    1.6366   52.9261 H   0  0  0  0  0  0
   18.0121   -0.3323   52.3405 O   0  0  0  0  0  0
   30.2321   -0.4646   53.7524 Cl  0  0  0  0  0  0
   19.6195    1.3151   51.0859 O   0  0  0  0  0  0
   20.4305    1.6149   49.9527 C   0  0  0  0  0  0
   16.9497   -0.8217   53.1509 C   0  0  0  0  0  0
   15.5990   -0.3883   52.4943 C   0  0  1  0  0  0
   14.3508   -0.9458   53.2190 C   0  0  0  0  0  0
   13.0417   -0.6246   52.4572 C   0  0  0  0  0  0
   14.0877    1.4428   51.5752 C   0  0  0  0  0  0
   15.3541    1.1391   52.4057 C   0  0  0  0  0  0
   12.8858    0.8508   52.2464 N   0  3  1  0  0  0
   11.6066    1.2156   51.5715 C   0  0  0  0  0  0
   23.4623   -2.4097   56.1758 H   0  0  0  0  0  0
   22.1855    1.3580   51.9482 H   0  0  0  0  0  0
   19.2284   -1.8528   54.3444 H   0  0  0  0  0  0
   28.8147    2.0837   53.7221 H   0  0  0  0  0  0
   25.6203   -1.6439   52.9221 H   0  0  0  0  0  0
   28.0227   -2.1283   53.1585 H   0  0  0  0  0  0
   19.7960    1.9557   49.1349 H   0  0  0  0  0  0
   21.1414    2.4110   50.1779 H   0  0  0  0  0  0
   20.9770    0.7361   49.6048 H   0  0  0  0  0  0
   17.0301   -0.4664   54.1749 H   0  0  0  0  0  0
   17.0102   -1.9106   53.1890 H   0  0  0  0  0  0
   15.6133   -0.7900   51.4799 H   0  0  0  0  0  0
   14.2828   -0.4687   54.1949 H   0  0  0  0  0  0
   14.4412   -2.0220   53.3720 H   0  0  0  0  0  0
   12.1871   -1.0027   53.0201 H   0  0  0  0  0  0
   13.0352   -1.1334   51.4919 H   0  0  0  0  0  0
   13.9580    2.5231   51.4901 H   0  0  0  0  0  0
   14.1859    1.0536   50.5593 H   0  0  0  0  0  0
   16.2224    1.6662   52.0073 H   0  0  0  0  0  0
   15.1013    1.5416   53.3912 H   0  0  0  0  0  0
   11.5645    0.8000   50.5657 H   0  0  0  0  0  0
   10.7516    0.8398   52.1337 H   0  0  0  0  0  0
   11.5035    2.2982   51.4998 H   0  0  0  0  0  0
   12.8438    1.2654   53.1771 H   0  0  0  0  0  0
  1  4  2  0  0  0
  1  9  1  0  0  0
  1 18  1  0  0  0
  2  9  2  0  0  0
  2 10  1  0  0  0
  2 32  1  0  0  0
  3  4  1  0  0  0
  3  8  1  0  0  0
  3 10  2  0  0  0
  4  5  1  0  0  0
  5  6  2  0  0  0
  5 33  1  0  0  0
  6  7  1  0  0  0
  6 22  1  0  0  0
  7  8  2  0  0  0
  7 20  1  0  0  0
  8 34  1  0  0  0
 11 13  2  0  0  0
 11 14  1  0  0  0
 11 18  1  0  0  0
 12 13  1  0  0  0
 12 16  2  0  0  0
 12 35  1  0  0  0
 13 17  1  0  0  0
 14 15  2  0  0  0
 14 36  1  0  0  0
 15 16  1  0  0  0
 15 37  1  0  0  0
 16 21  1  0  0  0
 18 19  1  0  0  0
 20 24  1  0  0  0
 22 23  1  0  0  0
 23 38  1  0  0  0
 23 39  1  0  0  0
 23 40  1  0  0  0
 24 25  1  0  0  0
 24 41  1  0  0  0
 24 42  1  0  0  0
 25 26  1  0  0  0
 25 29  1  0  0  0
 25 43  1  0  0  0
 26 27  1  0  0  0
 26 44  1  0  0  0
 26 45  1  0  0  0
 27 30  1  0  0  0
 27 46  1  0  0  0
 27 47  1  0  0  0
 28 29  1  0  0  0
 28 30  1  0  0  0
 28 48  1  0  0  0
 28 49  1  0  0  0
 29 50  1  0  0  0
 29 51  1  0  0  0
 30 31  1  0  0  0
 30 55  1  0  0  0
 31 52  1  0  0  0
 31 53  1  0  0  0
 31 54  1  0  0  0
M  CHG  1  30   1
M  END
> <s_m_entry_id>
273

> <s_m_entry_name>
pocket_pv.84

> <s_m_Source_Path>
/home/bortolaa/Project/GT/mario-master/docking/set505protein_struct_1_site_1_set505ligs_train

> <s_m_Source_File>
pocket_pv.maegz

> <i_m_Source_File_Index>
84

> <From>
www.bindingDB.org

> <BindingDB Reactant_set_id>
7081

> <Ligand InChI>
InChI=1S/C22H24ClFN4O2/c1-28-7-5-14(6-8-28)12-30-21-11-19-16(10-20(21)29-2)22(26-13-25-19)27-18-4-3-15(23)9-17(18)24/h3-4,9-11,13-14H,5-8,12H2,1-2H3,(H,25,26,27)

> <Ligand InChI Key>
KNAJKXGUAHBQTI-UHFFFAOYSA-N

> <BindingDB MonomerID>
4668

> <BindingDB Ligand Name>
4-Anilinoquinazoline 15::N-(4-chloro-2-fluorophenyl)-6-methoxy-7-[(1-methylpiperidin-4-yl)methoxy]quinazolin-4-amine

> <Target Name Assigned by Curator or DataSource>
Epidermal growth factor receptor

> <Target Source Organism According to Curator or DataSource>
Homo sapiens

> <Ki (nM)>


> <Kd (nM)>


> <EC50 (nM)>


> <kon (M-1-s-1)>


> <koff (s-1)>


> <pH>


> <Curation/DataSource>
Curated from the literature by BindingDB

> <Article DOI>
10.1021/jm011022e

> <PubChem AID>


> <Patent Number>


> <Authors>
Hennequin, LF; Stokes, ES; Thomas, AP; Johnstone, C; Ple, PA; Ogilvie, DJ; Dukes, M; Wedge, SR; Kendrew, J; Curwen, JO

> <Institution>
AstraZeneca

> <Link to Ligand in BindingDB>
http://www.bindingdb.org/bind/chemsearch/marvin/MolStructure.jsp?monomerid=4668

> <Link to Ligand-Target Pair in BindingDB>
http://www.bindingdb.org/jsp/dbsearch/PrimarySearch_ki.jsp?energyterm=kJ/mole&tag=r21&monomerid=4668&enzyme=Epidermal+growth+factor+receptor&column=ki&startPg=0&Increment=50&submit=Search

> <Ligand HET ID in PDB>


> <PDB ID(s) for Ligand-Target Complex>


> <PubChem CID>
5329041

> <PubChem SID>
8034325

> <ChEBI ID of Ligand>


> <ChEMBL ID of Ligand>


> <DrugBank ID of Ligand>


> <IUPHAR_GRAC ID of Ligand>


> <KEGG ID of Ligand>


> <ZINC ID of Ligand>
ZINC08662762

> <Number of Protein Chains in Target (>
1

> <BindingDB Target Chain Sequence>
MRPSGTAGAALLALLAALCPASRALEEKKVCQGTSNKLTQLGTFEDHFLSLQRMFNNCEVVLGNLEITYVQRNYDLSFLKTIQEVAGYVLIALNTVERIPLENLQIIRGNMYYENSYALAVLSNYDANKTGLKELPMRNLQEILHGAVRFSNNPALCNVESIQWRDIVSSDFLSNMSMDFQNHLGSCQKCDPSCPNGSCWGAGEENCQKLTKIICAQQCSGRCRGKSPSDCCHNQCAAGCTGPRESDCLVCRKFRDEATCKDTCPPLMLYNPTTYQMDVNPEGKYSFGATCVKKCPRNYVVTDHGSCVRACGADSYEMEEDGVRKCKKCEGPCRKVCNGIGIGEFKDSLSINATNIKHFKNCTSISGDLHILPVAFRGDSFTHTPPLDPQELDILKTVKEITGFLLIQAWPENRTDLHAFENLEIIRGRTKQHGQFSLAVVSLNITSLGLRSLKEISDGDVIISGNKNLCYANTINWKKLFGTSGQKTKIISNRGENSCKATGQVCHALCSPEGCWGPEPRDCVSCRNVSRGRECVDKCNLLEGEPREFVENSECIQCHPECLPQAMNITCTGRGPDNCIQCAHYIDGPHCVKTCPAGVMGENNTLVWKYADAGHVCHLCHPNCTYGCTGPGLEGCPTNGPKIPSIATGMVGALLLLLVVALGIGLFMRRRHIVRKRTLRRLLQERELVEPLTPSGEAPNQALLRILKETEFKKIKVLGSGAFGTVYKGLWIPEGEKVKIPVAIKELREATSPKANKEILDEAYVMASVDNPHVCRLLGICLTSTVQLITQLMPFGCLLDYVREHKDNIGSQYLLNWCVQIAKGMNYLEDRRLVHRDLAARNVLVKTPQHVKITDFGLAKLLGAEEKEYHAEGGKVPIKWMALESILHRIYTHQSDVWSYGVTVWELMTFGSKPYDGIPASEISSILEKGERLPQPPICTIDVYMIMVKCWMIDADSRPKFRELIIEFSKMARDPQRYLVIQGDERMHLPSPTDSNFYRALMDEEDMDDVVDADEYLIPQQGFFSSPSTSRTPLLSSLSATSNNSTVACIDRNGLQSCPIKEDSFLQRYSSDPTGALTEDSIDDTFLPVPEYINQSVPKRPAGSVQNPVYHNQPLNPAPSRDPHYQDPHSTAVGNPEYLNTVQPTCVNSTFDSPAHWAQKGSHQISLDNPDYQQDFFPKEAKPNGIFKGSTAENAEYLRVAPQSSEFIGA

> <PDB ID(s) of Target Chain>
1IVO,1M14,1M17,1MOX,1XKK,1Z9I,2GS2,2GS6,2ITW,2ITX,2ITY,2J5E,2J5F,2J6M,2RF9,2RGP,3B2V,3BEL,3GOP,3POZ,3QWQ,3VJO,3W2O,3W2P,3W2Q,3W2R,3W2S,3W32,3W33,4G5J,4I23,4JQ7,4JQ8,4JR3,4JRV,4KRO,4LI5,4RJ4,4RJ5,4RJ6,4RJ7,4RJ8,4TKS,4UIP,4UV7,4WKQ,4WRG,4ZAU,5C8K,5C8M,5C8N,5CAL,5CAN,5CAO,5CAP,5CAQ,5CAS,5CAU,5CAV,5EDP,5EDQ,5EDR,5EM5,5EM6,5EM7,5EM8,5FED,5GNK,5HCX,5HCY,5HCZ,5HIB,5HIC,5UGB,5WB7,5WB8,5Y25,6S89,6S8A

> <UniProt (SwissProt) Recommended Name of Target Chain>
Epidermal growth factor receptor

> <UniProt (SwissProt) Entry Name of Target Chain>
EGFR_HUMAN

> <UniProt (SwissProt) Primary ID of Target Chain>
P00533

> <UniProt (SwissProt) Secondary ID(s) of Target Chain>
O00688,O00732,P06268,Q14225,Q68GS5,Q92795,Q9BZS2,Q9GZX1,Q9H2C9,Q9H3C9,Q9UMD7,Q9UMD8,Q9UMG5

> <UniProt (SwissProt) Alternative ID(s) of Target Chain>


> <UniProt (TrEMBL) Submitted Name of Target Chain>


> <UniProt (TrEMBL) Entry Name of Target Chain>


> <UniProt (TrEMBL) Primary ID of Target Chain>


> <UniProt (TrEMBL) Secondary ID(s) of Target Chain>


> <UniProt (TrEMBL) Alternative ID(s) of Target Chain>


> <training label>
6.52288

> <i_lp_mmshare_version>
54117

> <s_epik_input>
W2NIXTFbY0hdYyhDbClbY0hdYyhGKWMxW05IXWMobltjSF1uMiljKGMyMylbY0hdYyhPW0NIM10pYyhbY0hdMylPW0NIMl1bQ0hdNFtDSDJdW0NIMl1OKFtDSDNdKVtDSDJdW0NIMl00

> <s_epik_cmdline>
J2VwaWtfcHl0aG9uJywgJy1waHQnLCAnMC4xJywgJy1waCcsICc3LjQnLCAnLXRuJywgJzgnLCAnLW1hJywgJzIwMCcsICctaW1hZScsICc8aW5maWxlLm1hZT4nLCAnLW9tYWUnLCAnPG91dGZpbGUubWFlPic=

> <r_lp_tautomer_probability>
1

> <r_epik_Ionization_Penalty>
  0.0048

> <r_epik_Ionization_Penalty_Charging>
  0.0039

> <r_epik_Ionization_Penalty_Neutral>
  0.0009

> <r_epik_State_Penalty>
  0.0000

> <r_epik_Charging_Adjusted_Penalty>
0.0038691425947202

> <i_epik_Tot_Q>
1

> <i_epik_Tot_abs_Q>
1

> <i_f3d_flags>
0

> <s_lp_Force_Field>
OPLS_2005

> <r_lp_Energy>
30.747288

> <b_lp_Chiralities_Consistent>
1

> <s_lp_Variant>
4-Anilinoquinazoline-1

> <s_i_glide_gridfile>
struct_1_site_1

> <i_i_glide_lignum>
120

> <i_i_glide_rotatable_bonds>
6

> <r_i_docking_score>
-7.82507940191295

> <r_i_glide_ligand_efficiency>
-0.260835980063765

> <r_i_glide_ligand_efficiency_sa>
-0.810478035057598

> <r_i_glide_ligand_efficiency_ln>
-1.77794330118358

> <r_i_glide_gscore>
-7.82507940191295

> <r_i_glide_lipo>
-3.40196586714943

> <r_i_glide_hbond>
-0.32

> <r_i_glide_metal>
0

> <r_i_glide_rewards>
-1.60340593756771

> <r_i_glide_evdw>
-41.9315567016602

> <r_i_glide_ecoul>
-5.54306173324585

> <r_i_glide_erotb>
0.533216494566337

> <r_i_glide_esite>
-0.10488699669226

> <r_i_glide_emodel>
-52.8281771964687

> <r_i_glide_energy>
-47.474618434906

> <r_i_glide_einternal>
2.16825914382935

> <i_i_glide_confnum>
69

> <i_i_glide_posenum>
127

> <r_i_glide_eff_state_penalty>
0

> <IC50 (nM)>
300

> <PMID>
11881999

> <Temp C>
25

> <r_glide_shape_similarity>
0.814572691917419

> <s_m_subgroup_title>
505 training

> <s_m_subgroupid>
pocket_pv

> <b_m_subgroup_collapsed>
0

$$$$
BindingDB_3298_mol_1
                    3D
 Schrodinger Suite 2021-2.
 32 34  0  0  1  0            999 V2000
   21.5124    0.6495   52.4927 C   0  0  0  0  0  0
   19.3416   -0.3822   52.8253 C   0  0  0  0  0  0
   19.9060   -1.2016   53.8297 C   0  0  0  0  0  0
   22.0724   -0.1639   53.4953 C   0  0  0  0  0  0
   21.2692   -1.1043   54.1746 C   0  0  0  0  0  0
   23.4335   -0.0884   53.8616 C   0  0  0  0  0  0
   23.0903   -1.7116   55.4100 C   0  0  0  0  0  0
   23.9329   -0.8760   54.8237 N   0  0  0  0  0  0
   21.8017   -1.8827   55.1338 N   0  0  0  0  0  0
   24.2889    0.8515   53.2745 N   0  0  0  0  0  0
   23.8243    1.6219   52.8297 H   0  0  0  0  0  0
   25.6836    0.9487   53.3444 C   0  0  0  0  0  0
   27.6703    2.3588   53.4259 C   0  0  0  0  0  0
   26.2734    2.2246   53.3723 C   0  0  0  0  0  0
   26.5140   -0.1889   53.3343 C   0  0  0  0  0  0
   27.9107   -0.0495   53.3829 C   0  0  0  0  0  0
   28.4909    1.2232   53.4391 C   0  0  0  0  0  0
   20.1606    0.5272   52.1490 C   0  0  0  0  0  0
   18.0270   -0.3895   52.4356 O   0  0  0  0  0  0
   17.1095   -1.1470   53.1933 C   0  0  0  0  0  0
   29.0155   -1.5869   53.3746 Br  0  0  0  0  0  0
   22.1074    1.3695   51.9513 H   0  0  0  0  0  0
   19.2983   -1.9110   54.3708 H   0  0  0  0  0  0
   23.5026   -2.3538   56.1733 H   0  0  0  0  0  0
   28.1133    3.3450   53.4570 H   0  0  0  0  0  0
   25.6597    3.1171   53.3574 H   0  0  0  0  0  0
   26.0929   -1.1830   53.2873 H   0  0  0  0  0  0
   29.5654    1.3278   53.4790 H   0  0  0  0  0  0
   19.7456    1.1543   51.3730 H   0  0  0  0  0  0
   16.0996   -0.9692   52.8232 H   0  0  0  0  0  0
   17.1309   -0.8666   54.2475 H   0  0  0  0  0  0
   17.3161   -2.2142   53.1081 H   0  0  0  0  0  0
  1  4  2  0  0  0
  1 18  1  0  0  0
  1 22  1  0  0  0
  2  3  1  0  0  0
  2 18  2  0  0  0
  2 19  1  0  0  0
  3  5  2  0  0  0
  3 23  1  0  0  0
  4  5  1  0  0  0
  4  6  1  0  0  0
  5  9  1  0  0  0
  6  8  2  0  0  0
  6 10  1  0  0  0
  7  8  1  0  0  0
  7  9  2  0  0  0
  7 24  1  0  0  0
 10 11  1  0  0  0
 10 12  1  0  0  0
 12 14  2  0  0  0
 12 15  1  0  0  0
 13 14  1  0  0  0
 13 17  2  0  0  0
 13 25  1  0  0  0
 14 26  1  0  0  0
 15 16  2  0  0  0
 15 27  1  0  0  0
 16 17  1  0  0  0
 16 21  1  0  0  0
 17 28  1  0  0  0
 18 29  1  0  0  0
 19 20  1  0  0  0
 20 30  1  0  0  0
 20 31  1  0  0  0
 20 32  1  0  0  0
M  END
> <s_m_entry_id>
274

> <s_m_entry_name>
pocket_pv.85

> <s_m_Source_Path>
/home/bortolaa/Project/GT/mario-master/docking/set505protein_struct_1_site_1_set505ligs_train

> <s_m_Source_File>
pocket_pv.maegz

> <i_m_Source_File_Index>
85

> <From>
www.bindingDB.org

> <BindingDB Reactant_set_id>
4884

> <Ligand InChI>
InChI=1S/C15H12BrN3O/c1-20-12-5-6-13-14(8-12)17-9-18-15(13)19-11-4-2-3-10(16)7-11/h2-9H,1H3,(H,17,18,19)

> <Ligand InChI Key>
CDWGVMQLDOQALI-UHFFFAOYSA-N

> <BindingDB MonomerID>
3298

> <BindingDB Ligand Name>
4-Anilinoquinazoline deriv. 49::CHEMBL93181::N-(3-bromophenyl)-7-methoxyquinazolin-4-amine

> <Target Name Assigned by Curator or DataSource>
Epidermal growth factor receptor

> <Target Source Organism According to Curator or DataSource>
Homo sapiens

> <Ki (nM)>


> <Kd (nM)>


> <EC50 (nM)>


> <kon (M-1-s-1)>


> <koff (s-1)>


> <pH>


> <Temp C>


> <Curation/DataSource>
Curated from the literature by BindingDB

> <Article DOI>
10.1016/j.bmcl.2005.11.052

> <PubChem AID>


> <Patent Number>


> <Authors>
Rewcastle, GW; Denny, WA; Bridges, AJ; Zhou, H; Cody, DR; McMichael, A; Fry, DW

> <Institution>
University of Auckland

> <Link to Ligand in BindingDB>
http://www.bindingdb.org/bind/chemsearch/marvin/MolStructure.jsp?monomerid=3298

> <Link to Ligand-Target Pair in BindingDB>
http://www.bindingdb.org/jsp/dbsearch/PrimarySearch_ki.jsp?energyterm=kJ/mole&tag=r21&monomerid=3298&enzyme=Epidermal+growth+factor+receptor&column=ki&startPg=0&Increment=50&submit=Search

> <Ligand HET ID in PDB>


> <PDB ID(s) for Ligand-Target Complex>


> <PubChem CID>
5328046

> <PubChem SID>
8033040

> <ChEBI ID of Ligand>


> <ChEMBL ID of Ligand>
CHEMBL93181

> <DrugBank ID of Ligand>


> <IUPHAR_GRAC ID of Ligand>


> <KEGG ID of Ligand>


> <ZINC ID of Ligand>
ZINC03815332

> <Number of Protein Chains in Target (>
1

> <BindingDB Target Chain Sequence>
MRPSGTAGAALLALLAALCPASRALEEKKVCQGTSNKLTQLGTFEDHFLSLQRMFNNCEVVLGNLEITYVQRNYDLSFLKTIQEVAGYVLIALNTVERIPLENLQIIRGNMYYENSYALAVLSNYDANKTGLKELPMRNLQEILHGAVRFSNNPALCNVESIQWRDIVSSDFLSNMSMDFQNHLGSCQKCDPSCPNGSCWGAGEENCQKLTKIICAQQCSGRCRGKSPSDCCHNQCAAGCTGPRESDCLVCRKFRDEATCKDTCPPLMLYNPTTYQMDVNPEGKYSFGATCVKKCPRNYVVTDHGSCVRACGADSYEMEEDGVRKCKKCEGPCRKVCNGIGIGEFKDSLSINATNIKHFKNCTSISGDLHILPVAFRGDSFTHTPPLDPQELDILKTVKEITGFLLIQAWPENRTDLHAFENLEIIRGRTKQHGQFSLAVVSLNITSLGLRSLKEISDGDVIISGNKNLCYANTINWKKLFGTSGQKTKIISNRGENSCKATGQVCHALCSPEGCWGPEPRDCVSCRNVSRGRECVDKCNLLEGEPREFVENSECIQCHPECLPQAMNITCTGRGPDNCIQCAHYIDGPHCVKTCPAGVMGENNTLVWKYADAGHVCHLCHPNCTYGCTGPGLEGCPTNGPKIPSIATGMVGALLLLLVVALGIGLFMRRRHIVRKRTLRRLLQERELVEPLTPSGEAPNQALLRILKETEFKKIKVLGSGAFGTVYKGLWIPEGEKVKIPVAIKELREATSPKANKEILDEAYVMASVDNPHVCRLLGICLTSTVQLITQLMPFGCLLDYVREHKDNIGSQYLLNWCVQIAKGMNYLEDRRLVHRDLAARNVLVKTPQHVKITDFGLAKLLGAEEKEYHAEGGKVPIKWMALESILHRIYTHQSDVWSYGVTVWELMTFGSKPYDGIPASEISSILEKGERLPQPPICTIDVYMIMVKCWMIDADSRPKFRELIIEFSKMARDPQRYLVIQGDERMHLPSPTDSNFYRALMDEEDMDDVVDADEYLIPQQGFFSSPSTSRTPLLSSLSATSNNSTVACIDRNGLQSCPIKEDSFLQRYSSDPTGALTEDSIDDTFLPVPEYINQSVPKRPAGSVQNPVYHNQPLNPAPSRDPHYQDPHSTAVGNPEYLNTVQPTCVNSTFDSPAHWAQKGSHQISLDNPDYQQDFFPKEAKPNGIFKGSTAENAEYLRVAPQSSEFIGA

> <PDB ID(s) of Target Chain>
1IVO,1M14,1M17,1MOX,1XKK,1Z9I,2GS2,2GS6,2ITW,2ITX,2ITY,2J5E,2J5F,2J6M,2RF9,2RGP,3B2V,3BEL,3GOP,3POZ,3QWQ,3VJO,3W2O,3W2P,3W2Q,3W2R,3W2S,3W32,3W33,4G5J,4I23,4JQ7,4JQ8,4JR3,4JRV,4KRO,4LI5,4RJ4,4RJ5,4RJ6,4RJ7,4RJ8,4TKS,4UIP,4UV7,4WKQ,4WRG,4ZAU,5C8K,5C8M,5C8N,5CAL,5CAN,5CAO,5CAP,5CAQ,5CAS,5CAU,5CAV,5EDP,5EDQ,5EDR,5EM5,5EM6,5EM7,5EM8,5FED,5GNK,5HCX,5HCY,5HCZ,5HIB,5HIC,5UGB,5WB7,5WB8,5Y25,6S89,6S8A

> <UniProt (SwissProt) Recommended Name of Target Chain>
Epidermal growth factor receptor

> <UniProt (SwissProt) Entry Name of Target Chain>
EGFR_HUMAN

> <UniProt (SwissProt) Primary ID of Target Chain>
P00533

> <UniProt (SwissProt) Secondary ID(s) of Target Chain>
O00688,O00732,P06268,Q14225,Q68GS5,Q92795,Q9BZS2,Q9GZX1,Q9H2C9,Q9H3C9,Q9UMD7,Q9UMD8,Q9UMG5

> <UniProt (SwissProt) Alternative ID(s) of Target Chain>


> <UniProt (TrEMBL) Submitted Name of Target Chain>


> <UniProt (TrEMBL) Entry Name of Target Chain>


> <UniProt (TrEMBL) Primary ID of Target Chain>


> <UniProt (TrEMBL) Secondary ID(s) of Target Chain>


> <UniProt (TrEMBL) Alternative ID(s) of Target Chain>


> <training label>
8

> <i_lp_mmshare_version>
54117

> <s_epik_input>
W2NIXTFbY0hdYyhPW0NIM10pW2NIXWMoYzEyKW5bY0hdbmMyW05IXWMzW2NIXVtjSF1bY0hdYyhCcilbY0hdMw==

> <s_epik_cmdline>
J2VwaWtfcHl0aG9uJywgJy1waHQnLCAnMC4xJywgJy1waCcsICc3LjQnLCAnLXRuJywgJzgnLCAnLW1hJywgJzIwMCcsICctaW1hZScsICc8aW5maWxlLm1hZT4nLCAnLW9tYWUnLCAnPG91dGZpbGUubWFlPic=

> <r_lp_tautomer_probability>
1

> <r_epik_Ionization_Penalty>
  0.0009

> <r_epik_Ionization_Penalty_Charging>
  0.0000

> <r_epik_Ionization_Penalty_Neutral>
  0.0009

> <r_epik_State_Penalty>
  0.0000

> <r_epik_Charging_Adjusted_Penalty>
0

> <i_epik_Tot_Q>
0

> <i_epik_Tot_abs_Q>
0

> <i_f3d_flags>
0

> <s_lp_Force_Field>
OPLS_2005

> <r_lp_Energy>
17.158105

> <b_lp_Chiralities_Consistent>
1

> <s_lp_Variant>
BindingDB_3298_mol_1-1

> <s_i_glide_gridfile>
struct_1_site_1

> <i_i_glide_lignum>
230

> <i_i_glide_rotatable_bonds>
3

> <r_i_docking_score>
-7.8082733891472

> <r_i_glide_ligand_efficiency>
-0.39041366945736

> <r_i_glide_ligand_efficiency_sa>
-1.05974574107628

> <r_i_glide_ligand_efficiency_ln>
-1.95415329521118

> <r_i_glide_gscore>
-7.8082733891472

> <r_i_glide_lipo>
-2.80020069016083

> <r_i_glide_hbond>
-0.32

> <r_i_glide_metal>
0

> <r_i_glide_rewards>
-2.33394798960624

> <r_i_glide_evdw>
-38.6205635070801

> <r_i_glide_ecoul>
-5.12052536010742

> <r_i_glide_erotb>
0.344982269989983

> <r_i_glide_esite>
0

> <r_i_glide_emodel>
-39.7476360205256

> <r_i_glide_energy>
-43.7410888671875

> <r_i_glide_einternal>
1.03371286392212

> <i_i_glide_confnum>
5

> <i_i_glide_posenum>
326

> <r_i_glide_eff_state_penalty>
0

> <IC50 (nM)>
10

> <PMID>
7658435

> <r_glide_shape_similarity>
0.744841814041138

> <s_m_subgroup_title>
505 training

> <s_m_subgroupid>
pocket_pv

> <b_m_subgroup_collapsed>
0

$$$$
Anilinoquinazoline
                    3D
 Schrodinger Suite 2021-2.
 43 45  0  0  1  0            999 V2000
   21.5601    0.6430   52.4709 C   0  0  0  0  0  0
   20.2070    0.5460   52.1180 C   0  0  0  0  0  0
   19.3706   -0.3347   52.8073 C   0  0  0  0  0  0
   19.8994   -1.1631   53.8237 C   0  0  0  0  0  0
   22.0846   -0.1604   53.4948 C   0  0  0  0  0  0
   21.2620   -1.0878   54.1746 C   0  0  0  0  0  0
   23.4420   -0.1061   53.8721 C   0  0  0  0  0  0
   23.0659   -1.7332   55.4184 C   0  0  0  0  0  0
   23.9130   -0.9020   54.8443 N   0  0  0  0  0  0
   21.7772   -1.8759   55.1358 N   0  0  0  0  0  0
   25.7635    0.5325   53.2544 C   0  0  0  0  0  0
   28.0450    1.3586   53.4980 C   0  0  0  0  0  0
   26.2755   -0.7734   53.1266 C   0  0  0  0  0  0
   27.6460   -1.0258   53.2345 C   0  0  0  0  0  0
   24.3770    0.7424   53.2663 N   0  0  0  0  0  0
   24.0373    1.6298   52.9240 H   0  0  0  0  0  0
   18.0685   -0.2938   52.3901 O   0  0  0  0  0  0
   19.6413    1.3037   51.1230 O   0  0  0  0  0  0
   20.4509    1.6116   50.0035 C   0  0  0  0  0  0
   28.5201    0.0365   53.4484 C   0  0  0  0  0  0
   26.6639    1.6001   53.3924 C   0  0  0  0  0  0
   26.1906    2.8547   53.4808 F   0  0  0  0  0  0
   30.1791   -0.3275   53.6665 Cl  0  0  0  0  0  0
   17.1129   -1.1061   53.0090 C   0  0  0  0  0  0
   15.8409   -0.9431   52.1774 C   0  0  0  0  0  0
   15.2094    0.2913   52.4409 O   0  0  0  0  0  0
   14.2816    0.2171   53.5045 C   0  0  0  0  0  0
   22.1936    1.3419   51.9517 H   0  0  0  0  0  0
   19.2664   -1.8462   54.3689 H   0  0  0  0  0  0
   23.4716   -2.3778   56.1816 H   0  0  0  0  0  0
   28.7335    2.1782   53.6499 H   0  0  0  0  0  0
   25.6073   -1.6087   52.9769 H   0  0  0  0  0  0
   28.0245   -2.0350   53.1675 H   0  0  0  0  0  0
   19.8214    1.9409   49.1775 H   0  0  0  0  0  0
   21.1491    2.4205   50.2322 H   0  0  0  0  0  0
   21.0202    0.7419   49.6682 H   0  0  0  0  0  0
   16.9569   -0.8286   54.0512 H   0  0  0  0  0  0
   17.4324   -2.1477   52.9698 H   0  0  0  0  0  0
   15.1665   -1.7779   52.3703 H   0  0  0  0  0  0
   16.0830   -0.9985   51.1130 H   0  0  0  0  0  0
   13.8250    1.1981   53.6473 H   0  0  0  0  0  0
   14.7719   -0.0657   54.4340 H   0  0  0  0  0  0
   13.4801   -0.4971   53.2962 H   0  0  0  0  0  0
  1  2  1  0  0  0
  1  5  2  0  0  0
  1 28  1  0  0  0
  2  3  2  0  0  0
  2 18  1  0  0  0
  3  4  1  0  0  0
  3 17  1  0  0  0
  4  6  2  0  0  0
  4 29  1  0  0  0
  5  6  1  0  0  0
  5  7  1  0  0  0
  6 10  1  0  0  0
  7  9  2  0  0  0
  7 15  1  0  0  0
  8  9  1  0  0  0
  8 10  2  0  0  0
  8 30  1  0  0  0
 11 13  1  0  0  0
 11 15  1  0  0  0
 11 21  2  0  0  0
 12 20  2  0  0  0
 12 21  1  0  0  0
 12 31  1  0  0  0
 13 14  2  0  0  0
 13 32  1  0  0  0
 14 20  1  0  0  0
 14 33  1  0  0  0
 15 16  1  0  0  0
 17 24  1  0  0  0
 18 19  1  0  0  0
 19 34  1  0  0  0
 19 35  1  0  0  0
 19 36  1  0  0  0
 20 23  1  0  0  0
 21 22  1  0  0  0
 24 25  1  0  0  0
 24 37  1  0  0  0
 24 38  1  0  0  0
 25 26  1  0  0  0
 25 39  1  0  0  0
 25 40  1  0  0  0
 26 27  1  0  0  0
 27 41  1  0  0  0
 27 42  1  0  0  0
 27 43  1  0  0  0
M  END
> <s_m_entry_id>
275

> <s_m_entry_name>
pocket_pv.86

> <s_m_Source_Path>
/home/bortolaa/Project/GT/mario-master/docking/set505protein_struct_1_site_1_set505ligs_train

> <s_m_Source_File>
pocket_pv.maegz

> <i_m_Source_File_Index>
86

> <From>
www.bindingDB.org

> <BindingDB Reactant_set_id>
7070

> <Ligand InChI>
InChI=1S/C18H17ClFN3O3/c1-24-5-6-26-17-9-15-12(8-16(17)25-2)18(22-10-21-15)23-14-4-3-11(19)7-13(14)20/h3-4,7-10H,5-6H2,1-2H3,(H,21,22,23)

> <Ligand InChI Key>
SWIHGAFGYUTAOY-UHFFFAOYSA-N

> <BindingDB MonomerID>
4628

> <BindingDB Ligand Name>
Anilinoquinazoline deriv. 11::CHEMBL286160::KDR Kinase Inhibitor, 10::N-(4-Chloro-2-fluorophenyl)-6-methoxy-7-(2-methoxyethoxy)-4-quinazolinylamine hydrochloride::N-(4-chloro-2-fluorophenyl)-6-methoxy-7-(2-methoxyethoxy)quinazolin-4-amine

> <Target Name Assigned by Curator or DataSource>
Epidermal growth factor receptor

> <Target Source Organism According to Curator or DataSource>
Homo sapiens

> <Ki (nM)>


> <Kd (nM)>


> <EC50 (nM)>


> <kon (M-1-s-1)>


> <koff (s-1)>


> <pH>


> <Curation/DataSource>
Curated from the literature by BindingDB

> <Article DOI>
10.1021/jm011022e

> <PubChem AID>


> <Patent Number>


> <Authors>
Hennequin, LF; Stokes, ES; Thomas, AP; Johnstone, C; Ple, PA; Ogilvie, DJ; Dukes, M; Wedge, SR; Kendrew, J; Curwen, JO

> <Institution>
AstraZeneca

> <Link to Ligand in BindingDB>
http://www.bindingdb.org/bind/chemsearch/marvin/MolStructure.jsp?monomerid=4628

> <Link to Ligand-Target Pair in BindingDB>
http://www.bindingdb.org/jsp/dbsearch/PrimarySearch_ki.jsp?energyterm=kJ/mole&tag=r21&monomerid=4628&enzyme=Epidermal+growth+factor+receptor&column=ki&startPg=0&Increment=50&submit=Search

> <Ligand HET ID in PDB>


> <PDB ID(s) for Ligand-Target Complex>


> <PubChem CID>
5329011

> <PubChem SID>
8034291

> <ChEBI ID of Ligand>


> <ChEMBL ID of Ligand>
CHEMBL286160

> <DrugBank ID of Ligand>


> <IUPHAR_GRAC ID of Ligand>


> <KEGG ID of Ligand>


> <ZINC ID of Ligand>
ZINC01895097

> <Number of Protein Chains in Target (>
1

> <BindingDB Target Chain Sequence>
MRPSGTAGAALLALLAALCPASRALEEKKVCQGTSNKLTQLGTFEDHFLSLQRMFNNCEVVLGNLEITYVQRNYDLSFLKTIQEVAGYVLIALNTVERIPLENLQIIRGNMYYENSYALAVLSNYDANKTGLKELPMRNLQEILHGAVRFSNNPALCNVESIQWRDIVSSDFLSNMSMDFQNHLGSCQKCDPSCPNGSCWGAGEENCQKLTKIICAQQCSGRCRGKSPSDCCHNQCAAGCTGPRESDCLVCRKFRDEATCKDTCPPLMLYNPTTYQMDVNPEGKYSFGATCVKKCPRNYVVTDHGSCVRACGADSYEMEEDGVRKCKKCEGPCRKVCNGIGIGEFKDSLSINATNIKHFKNCTSISGDLHILPVAFRGDSFTHTPPLDPQELDILKTVKEITGFLLIQAWPENRTDLHAFENLEIIRGRTKQHGQFSLAVVSLNITSLGLRSLKEISDGDVIISGNKNLCYANTINWKKLFGTSGQKTKIISNRGENSCKATGQVCHALCSPEGCWGPEPRDCVSCRNVSRGRECVDKCNLLEGEPREFVENSECIQCHPECLPQAMNITCTGRGPDNCIQCAHYIDGPHCVKTCPAGVMGENNTLVWKYADAGHVCHLCHPNCTYGCTGPGLEGCPTNGPKIPSIATGMVGALLLLLVVALGIGLFMRRRHIVRKRTLRRLLQERELVEPLTPSGEAPNQALLRILKETEFKKIKVLGSGAFGTVYKGLWIPEGEKVKIPVAIKELREATSPKANKEILDEAYVMASVDNPHVCRLLGICLTSTVQLITQLMPFGCLLDYVREHKDNIGSQYLLNWCVQIAKGMNYLEDRRLVHRDLAARNVLVKTPQHVKITDFGLAKLLGAEEKEYHAEGGKVPIKWMALESILHRIYTHQSDVWSYGVTVWELMTFGSKPYDGIPASEISSILEKGERLPQPPICTIDVYMIMVKCWMIDADSRPKFRELIIEFSKMARDPQRYLVIQGDERMHLPSPTDSNFYRALMDEEDMDDVVDADEYLIPQQGFFSSPSTSRTPLLSSLSATSNNSTVACIDRNGLQSCPIKEDSFLQRYSSDPTGALTEDSIDDTFLPVPEYINQSVPKRPAGSVQNPVYHNQPLNPAPSRDPHYQDPHSTAVGNPEYLNTVQPTCVNSTFDSPAHWAQKGSHQISLDNPDYQQDFFPKEAKPNGIFKGSTAENAEYLRVAPQSSEFIGA

> <PDB ID(s) of Target Chain>
1IVO,1M14,1M17,1MOX,1XKK,1Z9I,2GS2,2GS6,2ITW,2ITX,2ITY,2J5E,2J5F,2J6M,2RF9,2RGP,3B2V,3BEL,3GOP,3POZ,3QWQ,3VJO,3W2O,3W2P,3W2Q,3W2R,3W2S,3W32,3W33,4G5J,4I23,4JQ7,4JQ8,4JR3,4JRV,4KRO,4LI5,4RJ4,4RJ5,4RJ6,4RJ7,4RJ8,4TKS,4UIP,4UV7,4WKQ,4WRG,4ZAU,5C8K,5C8M,5C8N,5CAL,5CAN,5CAO,5CAP,5CAQ,5CAS,5CAU,5CAV,5EDP,5EDQ,5EDR,5EM5,5EM6,5EM7,5EM8,5FED,5GNK,5HCX,5HCY,5HCZ,5HIB,5HIC,5UGB,5WB7,5WB8,5Y25,6S89,6S8A

> <UniProt (SwissProt) Recommended Name of Target Chain>
Epidermal growth factor receptor

> <UniProt (SwissProt) Entry Name of Target Chain>
EGFR_HUMAN

> <UniProt (SwissProt) Primary ID of Target Chain>
P00533

> <UniProt (SwissProt) Secondary ID(s) of Target Chain>
O00688,O00732,P06268,Q14225,Q68GS5,Q92795,Q9BZS2,Q9GZX1,Q9H2C9,Q9H3C9,Q9UMD7,Q9UMD8,Q9UMG5

> <UniProt (SwissProt) Alternative ID(s) of Target Chain>


> <UniProt (TrEMBL) Submitted Name of Target Chain>


> <UniProt (TrEMBL) Entry Name of Target Chain>


> <UniProt (TrEMBL) Primary ID of Target Chain>


> <UniProt (TrEMBL) Secondary ID(s) of Target Chain>


> <UniProt (TrEMBL) Alternative ID(s) of Target Chain>


> <training label>
7

> <i_lp_mmshare_version>
54117

> <s_epik_input>
W0NIM11PW0NIMl1bQ0gyXU9jKGMoW2NIXTEpT1tDSDNdKVtjSF1jKGMxMiluW2NIXW5jMltOSF1jM1tjSF1bY0hdYyhDbClbY0hdYzNG

> <s_epik_cmdline>
J2VwaWtfcHl0aG9uJywgJy1waHQnLCAnMC4xJywgJy1waCcsICc3LjQnLCAnLXRuJywgJzgnLCAnLW1hJywgJzIwMCcsICctaW1hZScsICc8aW5maWxlLm1hZT4nLCAnLW9tYWUnLCAnPG91dGZpbGUubWFlPic=

> <r_lp_tautomer_probability>
1

> <r_epik_Ionization_Penalty>
  0.0008

> <r_epik_Ionization_Penalty_Charging>
  0.0000

> <r_epik_Ionization_Penalty_Neutral>
  0.0008

> <r_epik_State_Penalty>
  0.0000

> <r_epik_Charging_Adjusted_Penalty>
0

> <i_epik_Tot_Q>
0

> <i_epik_Tot_abs_Q>
0

> <i_f3d_flags>
0

> <s_lp_Force_Field>
OPLS_2005

> <r_lp_Energy>
16.784211

> <b_lp_Chiralities_Consistent>
1

> <s_lp_Variant>
Anilinoquinazoline-1

> <s_i_glide_gridfile>
struct_1_site_1

> <i_i_glide_lignum>
155

> <i_i_glide_rotatable_bonds>
7

> <r_i_docking_score>
-7.78933182805375

> <r_i_glide_ligand_efficiency>
-0.299589685694375

> <r_i_glide_ligand_efficiency_sa>
-0.887533265041096

> <r_i_glide_ligand_efficiency_ln>
-1.82929902093602

> <r_i_glide_gscore>
-7.78933182805375

> <r_i_glide_lipo>
-3.3745885423385

> <r_i_glide_hbond>
-0.32

> <r_i_glide_metal>
0

> <r_i_glide_rewards>
-1.9869278609095

> <r_i_glide_evdw>
-41.6691932678223

> <r_i_glide_ecoul>
-4.01991701126099

> <r_i_glide_erotb>
0.678631790274516

> <r_i_glide_esite>
-0.1

> <r_i_glide_emodel>
-48.118133289677

> <r_i_glide_energy>
-45.6891102790833

> <r_i_glide_einternal>
5.31251335144043

> <i_i_glide_confnum>
69

> <i_i_glide_posenum>
87

> <r_i_glide_eff_state_penalty>
0

> <IC50 (nM)>
100

> <PMID>
11881999

> <Temp C>
25

> <r_glide_shape_similarity>
0.840017557144165

> <s_m_subgroup_title>
505 training

> <s_m_subgroupid>
pocket_pv

> <b_m_subgroup_collapsed>
0

$$$$
BindingDB_50391082_mol_1
                    3D
 Schrodinger Suite 2021-2.
 41 44  0  0  1  0            999 V2000
   20.1773    0.4955   52.1249 C   0  0  0  0  0  0
   19.3852   -0.4658   52.7733 C   0  0  0  0  0  0
   19.9181   -1.2177   53.8331 C   0  0  0  0  0  0
   21.5142    0.6495   52.5089 C   0  0  0  0  0  0
   22.0745   -0.1634   53.5098 C   0  0  0  0  0  0
   21.2720   -1.1041   54.1888 C   0  0  0  0  0  0
   21.8038   -1.8895   55.1414 N   0  0  0  0  0  0
   23.0957   -1.7342   55.4097 C   0  0  0  0  0  0
   23.9387   -0.8969   54.8232 N   0  0  0  0  0  0
   23.4378   -0.0958   53.8688 C   0  0  0  0  0  0
   24.2890    0.8467   53.2756 N   0  0  0  0  0  0
   25.6835    0.9471   53.3430 C   0  0  0  0  0  0
   26.5150   -0.1891   53.3344 C   0  0  0  0  0  0
   27.9108   -0.0502   53.3837 C   0  0  0  0  0  0
   28.4906    1.2239   53.4377 C   0  0  0  0  0  0
   27.6690    2.3590   53.4231 C   0  0  0  0  0  0
   26.2731    2.2230   53.3691 C   0  0  0  0  0  0
   29.0160   -1.5897   53.3748 Br  0  0  0  0  0  0
   19.7400    1.2140   51.0426 O   0  0  0  0  0  0
   18.5650    1.9915   51.2238 C   0  0  0  0  0  0
   17.2671    1.3303   50.7147 C   0  0  0  0  0  0
   16.3051    1.2021   51.7655 O   0  0  0  0  0  0
   18.1966   -0.8210   52.2107 O   0  0  0  0  0  0
   17.0448   -0.7098   53.0071 C   0  0  0  0  0  0
   15.9494   -0.1224   52.1223 C   0  0  0  0  0  0
   19.3105   -1.9678   54.3166 H   0  0  0  0  0  0
   22.1150    1.3662   51.9699 H   0  0  0  0  0  0
   23.5087   -2.3762   56.1732 H   0  0  0  0  0  0
   23.8226    1.6210   52.8354 H   0  0  0  0  0  0
   26.0892   -1.1802   53.2841 H   0  0  0  0  0  0
   29.5662    1.3336   53.4784 H   0  0  0  0  0  0
   28.1076    3.3467   53.4505 H   0  0  0  0  0  0
   25.6610    3.1146   53.3572 H   0  0  0  0  0  0
   18.4580    2.3073   52.2641 H   0  0  0  0  0  0
   18.7240    2.9134   50.6617 H   0  0  0  0  0  0
   16.8207    1.9748   49.9588 H   0  0  0  0  0  0
   17.4726    0.3930   50.1965 H   0  0  0  0  0  0
   16.7595   -1.6964   53.3729 H   0  0  0  0  0  0
   17.1996   -0.0710   53.8699 H   0  0  0  0  0  0
   15.0194   -0.0803   52.6889 H   0  0  0  0  0  0
   15.7579   -0.7387   51.2428 H   0  0  0  0  0  0
  1  2  2  0  0  0
  1  4  1  0  0  0
  1 19  1  0  0  0
  2  3  1  0  0  0
  2 23  1  0  0  0
  3  6  2  0  0  0
  3 26  1  0  0  0
  4  5  2  0  0  0
  4 27  1  0  0  0
  5  6  1  0  0  0
  5 10  1  0  0  0
  6  7  1  0  0  0
  7  8  2  0  0  0
  8  9  1  0  0  0
  8 28  1  0  0  0
  9 10  2  0  0  0
 10 11  1  0  0  0
 11 12  1  0  0  0
 11 29  1  0  0  0
 12 13  2  0  0  0
 12 17  1  0  0  0
 13 14  1  0  0  0
 13 30  1  0  0  0
 14 15  2  0  0  0
 14 18  1  0  0  0
 15 16  1  0  0  0
 15 31  1  0  0  0
 16 17  2  0  0  0
 16 32  1  0  0  0
 17 33  1  0  0  0
 19 20  1  0  0  0
 20 21  1  0  0  0
 20 34  1  0  0  0
 20 35  1  0  0  0
 21 22  1  0  0  0
 21 36  1  0  0  0
 21 37  1  0  0  0
 22 25  1  0  0  0
 23 24  1  0  0  0
 24 25  1  0  0  0
 24 38  1  0  0  0
 24 39  1  0  0  0
 25 40  1  0  0  0
 25 41  1  0  0  0
M  END
> <s_m_entry_id>
276

> <s_m_entry_name>
pocket_pv.87

> <s_m_Source_Path>
/home/bortolaa/Project/GT/mario-master/docking/set505protein_struct_1_site_1_set505ligs_train

> <s_m_Source_File>
pocket_pv.maegz

> <i_m_Source_File_Index>
87

> <From>
www.bindingDB.org

> <BindingDB Reactant_set_id>
50952867

> <Ligand InChI>
InChI=1S/C18H16BrN3O3/c19-12-2-1-3-13(8-12)22-18-14-9-16-17(10-15(14)20-11-21-18)25-7-5-23-4-6-24-16/h1-3,8-11H,4-7H2,(H,20,21,22)

> <Ligand InChI Key>
ITIUGXULOLVCPV-UHFFFAOYSA-N

> <BindingDB MonomerID>
50391082

> <BindingDB Ligand Name>
CHEMBL2087353

> <Target Name Assigned by Curator or DataSource>
Epidermal growth factor receptor

> <Target Source Organism According to Curator or DataSource>
Homo sapiens

> <Ki (nM)>


> <Kd (nM)>


> <EC50 (nM)>


> <kon (M-1-s-1)>


> <koff (s-1)>


> <pH>


> <Temp C>


> <Curation/DataSource>
ChEMBL

> <Article DOI>
10.1016/j.bmcl.2012.06.067

> <PubChem AID>


> <Patent Number>


> <Authors>
Hu, S; Xie, G; Zhang, DX; Davis, C; Long, W; Hu, Y; Wang, F; Kang, X; Tan, F; Ding, L; Wang, Y

> <Institution>
Zhejiang Betapharma

> <Link to Ligand in BindingDB>
http://www.bindingdb.org/bind/chemsearch/marvin/MolStructure.jsp?monomerid=50391082

> <Link to Ligand-Target Pair in BindingDB>
http://www.bindingdb.org/jsp/dbsearch/PrimarySearch_ki.jsp?energyterm=kJ/mole&tag=r21&monomerid=50391082&enzyme=Epidermal+growth+factor+receptor&column=ki&startPg=0&Increment=50&submit=Search

> <Ligand HET ID in PDB>


> <PDB ID(s) for Ligand-Target Complex>


> <PubChem CID>
10194325

> <PubChem SID>
160870165

> <ChEBI ID of Ligand>


> <ChEMBL ID of Ligand>
CHEMBL2087353

> <DrugBank ID of Ligand>


> <IUPHAR_GRAC ID of Ligand>


> <KEGG ID of Ligand>


> <ZINC ID of Ligand>
ZINC84690050

> <Number of Protein Chains in Target (>
1

> <BindingDB Target Chain Sequence>
MRPSGTAGAALLALLAALCPASRALEEKKVCQGTSNKLTQLGTFEDHFLSLQRMFNNCEVVLGNLEITYVQRNYDLSFLKTIQEVAGYVLIALNTVERIPLENLQIIRGNMYYENSYALAVLSNYDANKTGLKELPMRNLQEILHGAVRFSNNPALCNVESIQWRDIVSSDFLSNMSMDFQNHLGSCQKCDPSCPNGSCWGAGEENCQKLTKIICAQQCSGRCRGKSPSDCCHNQCAAGCTGPRESDCLVCRKFRDEATCKDTCPPLMLYNPTTYQMDVNPEGKYSFGATCVKKCPRNYVVTDHGSCVRACGADSYEMEEDGVRKCKKCEGPCRKVCNGIGIGEFKDSLSINATNIKHFKNCTSISGDLHILPVAFRGDSFTHTPPLDPQELDILKTVKEITGFLLIQAWPENRTDLHAFENLEIIRGRTKQHGQFSLAVVSLNITSLGLRSLKEISDGDVIISGNKNLCYANTINWKKLFGTSGQKTKIISNRGENSCKATGQVCHALCSPEGCWGPEPRDCVSCRNVSRGRECVDKCNLLEGEPREFVENSECIQCHPECLPQAMNITCTGRGPDNCIQCAHYIDGPHCVKTCPAGVMGENNTLVWKYADAGHVCHLCHPNCTYGCTGPGLEGCPTNGPKIPSIATGMVGALLLLLVVALGIGLFMRRRHIVRKRTLRRLLQERELVEPLTPSGEAPNQALLRILKETEFKKIKVLGSGAFGTVYKGLWIPEGEKVKIPVAIKELREATSPKANKEILDEAYVMASVDNPHVCRLLGICLTSTVQLITQLMPFGCLLDYVREHKDNIGSQYLLNWCVQIAKGMNYLEDRRLVHRDLAARNVLVKTPQHVKITDFGLAKLLGAEEKEYHAEGGKVPIKWMALESILHRIYTHQSDVWSYGVTVWELMTFGSKPYDGIPASEISSILEKGERLPQPPICTIDVYMIMVKCWMIDADSRPKFRELIIEFSKMARDPQRYLVIQGDERMHLPSPTDSNFYRALMDEEDMDDVVDADEYLIPQQGFFSSPSTSRTPLLSSLSATSNNSTVACIDRNGLQSCPIKEDSFLQRYSSDPTGALTEDSIDDTFLPVPEYINQSVPKRPAGSVQNPVYHNQPLNPAPSRDPHYQDPHSTAVGNPEYLNTVQPTCVNSTFDSPAHWAQKGSHQISLDNPDYQQDFFPKEAKPNGIFKGSTAENAEYLRVAPQSSEFIGA

> <PDB ID(s) of Target Chain>
1IVO,1M14,1M17,1MOX,1XKK,1Z9I,2GS2,2GS6,2ITW,2ITX,2ITY,2J5E,2J5F,2J6M,2RF9,2RGP,3B2V,3BEL,3GOP,3POZ,3QWQ,3VJO,3W2O,3W2P,3W2Q,3W2R,3W2S,3W32,3W33,4G5J,4I23,4JQ7,4JQ8,4JR3,4JRV,4KRO,4LI5,4RJ4,4RJ5,4RJ6,4RJ7,4RJ8,4TKS,4UIP,4UV7,4WKQ,4WRG,4ZAU,5C8K,5C8M,5C8N,5CAL,5CAN,5CAO,5CAP,5CAQ,5CAS,5CAU,5CAV,5EDP,5EDQ,5EDR,5EM5,5EM6,5EM7,5EM8,5FED,5GNK,5HCX,5HCY,5HCZ,5HIB,5HIC,5UGB,5WB7,5WB8,5Y25,6S89,6S8A

> <UniProt (SwissProt) Recommended Name of Target Chain>
Epidermal growth factor receptor

> <UniProt (SwissProt) Entry Name of Target Chain>
EGFR_HUMAN

> <UniProt (SwissProt) Primary ID of Target Chain>
P00533

> <UniProt (SwissProt) Secondary ID(s) of Target Chain>
O00688,O00732,P06268,Q14225,Q68GS5,Q92795,Q9BZS2,Q9GZX1,Q9H2C9,Q9H3C9,Q9UMD7,Q9UMD8,Q9UMG5

> <UniProt (SwissProt) Alternative ID(s) of Target Chain>


> <UniProt (TrEMBL) Submitted Name of Target Chain>


> <UniProt (TrEMBL) Entry Name of Target Chain>


> <UniProt (TrEMBL) Primary ID of Target Chain>


> <UniProt (TrEMBL) Secondary ID(s) of Target Chain>


> <UniProt (TrEMBL) Alternative ID(s) of Target Chain>


> <training label>
7.25964

> <i_lp_mmshare_version>
54117

> <s_epik_input>
TzFbQ0gyXVtDSDJdT1tDSDJdW0NIMl1PYyhjMTIpW2NIXWMzYyhbY0hdMiljKG5bY0hdbjMpW05IXWM0W2NIXWMoQnIpW2NIXVtjSF1bY0hdNA==

> <s_epik_cmdline>
J2VwaWtfcHl0aG9uJywgJy1waHQnLCAnMC4xJywgJy1waCcsICc3LjQnLCAnLXRuJywgJzgnLCAnLW1hJywgJzIwMCcsICctaW1hZScsICc8aW5maWxlLm1hZT4nLCAnLW9tYWUnLCAnPG91dGZpbGUubWFlPic=

> <r_lp_tautomer_probability>
1

> <r_epik_Ionization_Penalty>
  0.0005

> <r_epik_Ionization_Penalty_Charging>
  0.0000

> <r_epik_Ionization_Penalty_Neutral>
  0.0005

> <r_epik_State_Penalty>
  0.0000

> <r_epik_Charging_Adjusted_Penalty>
0

> <i_epik_Tot_Q>
0

> <i_epik_Tot_abs_Q>
0

> <i_f3d_flags>
0

> <s_lp_Force_Field>
OPLS_2005

> <r_lp_Energy>
32.748917

> <b_lp_Chiralities_Consistent>
1

> <s_lp_Variant>
BindingDB_50391082_mol_1-1

> <s_i_glide_gridfile>
struct_1_site_1

> <i_i_glide_lignum>
185

> <i_i_glide_rotatable_bonds>
2

> <r_i_docking_score>
-7.77966277198744

> <r_i_glide_ligand_efficiency>
-0.311186510879498

> <r_i_glide_ligand_efficiency_sa>
-0.909914876727921

> <r_i_glide_ligand_efficiency_ln>
-1.84401321464124

> <r_i_glide_gscore>
-7.77966277198744

> <r_i_glide_lipo>
-2.98817873079974

> <r_i_glide_hbond>
-0.32

> <r_i_glide_metal>
0

> <r_i_glide_rewards>
-1.8279348831003

> <r_i_glide_evdw>
-42.5687637329102

> <r_i_glide_ecoul>
-5.05105257034302

> <r_i_glide_erotb>
0.242546914109551

> <r_i_glide_esite>
0

> <r_i_glide_emodel>
-52.3586287343792

> <r_i_glide_energy>
-47.6198163032532

> <r_i_glide_einternal>
2.26564145088196

> <i_i_glide_confnum>
1

> <i_i_glide_posenum>
184

> <r_i_glide_eff_state_penalty>
0

> <IC50 (nM)>
55

> <PMID>
22959248

> <r_glide_shape_similarity>
0.842396199703217

> <s_m_subgroup_title>
505 training

> <s_m_subgroupid>
pocket_pv

> <b_m_subgroup_collapsed>
0

$$$$
4-Anilinoquinazoline
                    3D
 Schrodinger Suite 2021-2.
 55 58  0  0  1  0            999 V2000
   23.4419   -0.1015   53.8678 C   0  0  0  0  0  0
   23.0867   -1.7500   55.4142 C   0  0  0  0  0  0
   21.2517   -1.1072   54.1653 C   0  0  0  0  0  0
   22.0827   -0.1761   53.4777 C   0  0  0  0  0  0
   21.5695    0.6306   52.4333 C   0  0  0  0  0  0
   20.2055    0.5716   52.0936 C   0  0  0  0  0  0
   19.3503   -0.2728   52.8241 C   0  0  0  0  0  0
   19.8710   -1.1467   53.8220 C   0  0  0  0  0  0
   23.9346   -0.9004   54.8413 N   0  0  0  0  0  0
   21.7847   -1.8951   55.1350 N   0  0  0  0  0  0
   25.6880    0.9299   53.3214 C   0  0  0  0  0  0
   27.8908   -0.1442   53.3820 C   0  0  0  0  0  0
   26.4975   -0.2390   53.2624 C   0  0  0  0  0  0
   26.3037    2.2054   53.3749 C   0  0  0  0  0  0
   28.4894    1.1174   53.5326 C   0  0  0  0  0  0
   25.9593   -1.4685   53.0602 F   0  0  0  0  0  0
   24.2887    0.8541   53.2757 N   0  0  0  0  0  0
   23.8232    1.6332   52.8335 H   0  0  0  0  0  0
   18.0251   -0.0196   52.5739 O   0  0  0  0  0  0
   19.6441    1.3499   51.0991 O   0  0  0  0  0  0
   20.4257    1.6002   49.9336 C   0  0  0  0  0  0
   17.0647   -1.0382   52.4593 C   0  0  0  0  0  0
   15.7532   -0.3916   52.9473 C   0  0  0  0  0  0
   15.3944    0.9025   52.1702 C   0  0  0  0  0  0
   14.1418    1.5709   52.7863 C   0  0  0  0  0  0
   13.3041   -0.6646   53.5166 C   0  0  0  0  0  0
   14.5391   -1.3437   52.8768 C   0  0  0  0  0  0
   12.9894    0.6233   52.8338 N   0  3  0  0  0  0
   27.7095    2.3016   53.4763 C   0  0  0  0  0  0
   29.9669    1.1342   53.8281 C   0  0  0  0  0  0
   23.4917   -2.4024   56.1721 H   0  0  0  0  0  0
   22.2109    1.3105   51.8957 H   0  0  0  0  0  0
   19.2087   -1.7811   54.3901 H   0  0  0  0  0  0
   28.4885   -1.0438   53.3832 H   0  0  0  0  0  0
   25.7110    3.1103   53.3755 H   0  0  0  0  0  0
   19.7802    1.9687   49.1358 H   0  0  0  0  0  0
   21.1850    2.3590   50.1240 H   0  0  0  0  0  0
   20.9122    0.6923   49.5737 H   0  0  0  0  0  0
   17.3161   -1.9413   53.0157 H   0  0  0  0  0  0
   16.9624   -1.2660   51.4017 H   0  0  0  0  0  0
   15.9050   -0.1291   53.9943 H   0  0  0  0  0  0
   15.2125    0.6679   51.1206 H   0  0  0  0  0  0
   16.2197    1.6150   52.1754 H   0  0  0  0  0  0
   13.8586    2.4509   52.2075 H   0  0  0  0  0  0
   14.3605    1.9195   53.7948 H   0  0  0  0  0  0
   12.4368   -1.3229   53.4596 H   0  0  0  0  0  0
   13.4869   -0.4688   54.5728 H   0  0  0  0  0  0
   14.7611   -2.2867   53.3741 H   0  0  0  0  0  0
   14.3252   -1.6010   51.8388 H   0  0  0  0  0  0
   12.7065    0.4182   51.8798 H   0  0  0  0  0  0
   28.1744    3.2728   53.5712 H   0  0  0  0  0  0
   30.5452    0.7784   52.9752 H   0  0  0  0  0  0
   30.2876    2.1192   54.1702 H   0  0  0  0  0  0
   30.1616    0.4292   54.6305 H   0  0  0  0  0  0
   12.2083    1.0712   53.3078 H   0  0  0  0  0  0
  1  4  2  0  0  0
  1  9  1  0  0  0
  1 17  1  0  0  0
  2  9  2  0  0  0
  2 10  1  0  0  0
  2 31  1  0  0  0
  3  4  1  0  0  0
  3  8  1  0  0  0
  3 10  2  0  0  0
  4  5  1  0  0  0
  5  6  2  0  0  0
  5 32  1  0  0  0
  6  7  1  0  0  0
  6 20  1  0  0  0
  7  8  2  0  0  0
  7 19  1  0  0  0
  8 33  1  0  0  0
 11 13  2  0  0  0
 11 14  1  0  0  0
 11 17  1  0  0  0
 12 13  1  0  0  0
 12 15  2  0  0  0
 12 34  1  0  0  0
 13 16  1  0  0  0
 14 29  2  0  0  0
 14 35  1  0  0  0
 15 29  1  0  0  0
 15 30  1  0  0  0
 17 18  1  0  0  0
 19 22  1  0  0  0
 20 21  1  0  0  0
 21 36  1  0  0  0
 21 37  1  0  0  0
 21 38  1  0  0  0
 22 23  1  0  0  0
 22 39  1  0  0  0
 22 40  1  0  0  0
 23 24  1  0  0  0
 23 27  1  0  0  0
 23 41  1  0  0  0
 24 25  1  0  0  0
 24 42  1  0  0  0
 24 43  1  0  0  0
 25 28  1  0  0  0
 25 44  1  0  0  0
 25 45  1  0  0  0
 26 27  1  0  0  0
 26 28  1  0  0  0
 26 46  1  0  0  0
 26 47  1  0  0  0
 27 48  1  0  0  0
 27 49  1  0  0  0
 28 50  1  0  0  0
 28 55  1  0  0  0
 29 51  1  0  0  0
 30 52  1  0  0  0
 30 53  1  0  0  0
 30 54  1  0  0  0
M  CHG  1  28   1
M  END
> <s_m_entry_id>
277

> <s_m_entry_name>
pocket_pv.88

> <s_m_Source_Path>
/home/bortolaa/Project/GT/mario-master/docking/set505protein_struct_1_site_1_set505ligs_train

> <s_m_Source_File>
pocket_pv.maegz

> <i_m_Source_File_Index>
88

> <From>
www.bindingDB.org

> <BindingDB Reactant_set_id>
7089

> <Ligand InChI>
InChI=1S/C22H25FN4O2/c1-14-3-4-18(17(23)9-14)27-22-16-10-20(28-2)21(11-19(16)25-13-26-22)29-12-15-5-7-24-8-6-15/h3-4,9-11,13,15,24H,5-8,12H2,1-2H3,(H,25,26,27)

> <Ligand InChI Key>
QAWSAMDJZZDGDW-UHFFFAOYSA-N

> <BindingDB MonomerID>
4676

> <BindingDB Ligand Name>
4-Anilinoquinazoline 23::N-(2-fluoro-4-methylphenyl)-6-methoxy-7-(piperidin-4-ylmethoxy)quinazolin-4-amine

> <Target Name Assigned by Curator or DataSource>
Epidermal growth factor receptor

> <Target Source Organism According to Curator or DataSource>
Homo sapiens

> <Ki (nM)>


> <IC50 (nM)>
500

> <Kd (nM)>


> <EC50 (nM)>


> <kon (M-1-s-1)>


> <koff (s-1)>


> <pH>


> <Curation/DataSource>
Curated from the literature by BindingDB

> <Article DOI>
10.1021/jm011022e

> <PubChem AID>


> <Patent Number>


> <Authors>
Hennequin, LF; Stokes, ES; Thomas, AP; Johnstone, C; Ple, PA; Ogilvie, DJ; Dukes, M; Wedge, SR; Kendrew, J; Curwen, JO

> <Institution>
AstraZeneca

> <Link to Ligand in BindingDB>
http://www.bindingdb.org/bind/chemsearch/marvin/MolStructure.jsp?monomerid=4676

> <Link to Ligand-Target Pair in BindingDB>
http://www.bindingdb.org/jsp/dbsearch/PrimarySearch_ki.jsp?energyterm=kJ/mole&tag=r21&monomerid=4676&enzyme=Epidermal+growth+factor+receptor&column=ki&startPg=0&Increment=50&submit=Search

> <Ligand HET ID in PDB>


> <PDB ID(s) for Ligand-Target Complex>


> <PubChem CID>
5329049

> <PubChem SID>
8034333

> <ChEBI ID of Ligand>


> <ChEMBL ID of Ligand>


> <DrugBank ID of Ligand>


> <IUPHAR_GRAC ID of Ligand>


> <KEGG ID of Ligand>


> <ZINC ID of Ligand>
ZINC13472794

> <Number of Protein Chains in Target (>
1

> <BindingDB Target Chain Sequence>
MRPSGTAGAALLALLAALCPASRALEEKKVCQGTSNKLTQLGTFEDHFLSLQRMFNNCEVVLGNLEITYVQRNYDLSFLKTIQEVAGYVLIALNTVERIPLENLQIIRGNMYYENSYALAVLSNYDANKTGLKELPMRNLQEILHGAVRFSNNPALCNVESIQWRDIVSSDFLSNMSMDFQNHLGSCQKCDPSCPNGSCWGAGEENCQKLTKIICAQQCSGRCRGKSPSDCCHNQCAAGCTGPRESDCLVCRKFRDEATCKDTCPPLMLYNPTTYQMDVNPEGKYSFGATCVKKCPRNYVVTDHGSCVRACGADSYEMEEDGVRKCKKCEGPCRKVCNGIGIGEFKDSLSINATNIKHFKNCTSISGDLHILPVAFRGDSFTHTPPLDPQELDILKTVKEITGFLLIQAWPENRTDLHAFENLEIIRGRTKQHGQFSLAVVSLNITSLGLRSLKEISDGDVIISGNKNLCYANTINWKKLFGTSGQKTKIISNRGENSCKATGQVCHALCSPEGCWGPEPRDCVSCRNVSRGRECVDKCNLLEGEPREFVENSECIQCHPECLPQAMNITCTGRGPDNCIQCAHYIDGPHCVKTCPAGVMGENNTLVWKYADAGHVCHLCHPNCTYGCTGPGLEGCPTNGPKIPSIATGMVGALLLLLVVALGIGLFMRRRHIVRKRTLRRLLQERELVEPLTPSGEAPNQALLRILKETEFKKIKVLGSGAFGTVYKGLWIPEGEKVKIPVAIKELREATSPKANKEILDEAYVMASVDNPHVCRLLGICLTSTVQLITQLMPFGCLLDYVREHKDNIGSQYLLNWCVQIAKGMNYLEDRRLVHRDLAARNVLVKTPQHVKITDFGLAKLLGAEEKEYHAEGGKVPIKWMALESILHRIYTHQSDVWSYGVTVWELMTFGSKPYDGIPASEISSILEKGERLPQPPICTIDVYMIMVKCWMIDADSRPKFRELIIEFSKMARDPQRYLVIQGDERMHLPSPTDSNFYRALMDEEDMDDVVDADEYLIPQQGFFSSPSTSRTPLLSSLSATSNNSTVACIDRNGLQSCPIKEDSFLQRYSSDPTGALTEDSIDDTFLPVPEYINQSVPKRPAGSVQNPVYHNQPLNPAPSRDPHYQDPHSTAVGNPEYLNTVQPTCVNSTFDSPAHWAQKGSHQISLDNPDYQQDFFPKEAKPNGIFKGSTAENAEYLRVAPQSSEFIGA

> <PDB ID(s) of Target Chain>
1IVO,1M14,1M17,1MOX,1XKK,1Z9I,2GS2,2GS6,2ITW,2ITX,2ITY,2J5E,2J5F,2J6M,2RF9,2RGP,3B2V,3BEL,3GOP,3POZ,3QWQ,3VJO,3W2O,3W2P,3W2Q,3W2R,3W2S,3W32,3W33,4G5J,4I23,4JQ7,4JQ8,4JR3,4JRV,4KRO,4LI5,4RJ4,4RJ5,4RJ6,4RJ7,4RJ8,4TKS,4UIP,4UV7,4WKQ,4WRG,4ZAU,5C8K,5C8M,5C8N,5CAL,5CAN,5CAO,5CAP,5CAQ,5CAS,5CAU,5CAV,5EDP,5EDQ,5EDR,5EM5,5EM6,5EM7,5EM8,5FED,5GNK,5HCX,5HCY,5HCZ,5HIB,5HIC,5UGB,5WB7,5WB8,5Y25,6S89,6S8A

> <UniProt (SwissProt) Recommended Name of Target Chain>
Epidermal growth factor receptor

> <UniProt (SwissProt) Entry Name of Target Chain>
EGFR_HUMAN

> <UniProt (SwissProt) Primary ID of Target Chain>
P00533

> <UniProt (SwissProt) Secondary ID(s) of Target Chain>
O00688,O00732,P06268,Q14225,Q68GS5,Q92795,Q9BZS2,Q9GZX1,Q9H2C9,Q9H3C9,Q9UMD7,Q9UMD8,Q9UMG5

> <UniProt (SwissProt) Alternative ID(s) of Target Chain>


> <UniProt (TrEMBL) Submitted Name of Target Chain>


> <UniProt (TrEMBL) Entry Name of Target Chain>


> <UniProt (TrEMBL) Primary ID of Target Chain>


> <UniProt (TrEMBL) Secondary ID(s) of Target Chain>


> <UniProt (TrEMBL) Alternative ID(s) of Target Chain>


> <training label>
6.30103

> <i_lp_mmshare_version>
54117

> <s_epik_input>
W2NIXTFbY0hdYyhbQ0gzXSlbY0hdYyhGKWMxW05IXWMobltjSF1uMiljKGMyMylbY0hdYyhPW0NIM10pYyhbY0hdMylPW0NIMl1bQ0hdNFtDSDJdW0NIMl1bTkhdW0NIMl1bQ0gyXTQ=

> <s_epik_cmdline>
J2VwaWtfcHl0aG9uJywgJy1waHQnLCAnMC4xJywgJy1waCcsICc3LjQnLCAnLXRuJywgJzgnLCAnLW1hJywgJzIwMCcsICctaW1hZScsICc8aW5maWxlLm1hZT4nLCAnLW9tYWUnLCAnPG91dGZpbGUubWFlPic=

> <r_lp_tautomer_probability>
1

> <r_epik_Ionization_Penalty>
  0.0020

> <r_epik_Ionization_Penalty_Charging>
  0.0011

> <r_epik_Ionization_Penalty_Neutral>
  0.0009

> <r_epik_State_Penalty>
  0.0000

> <r_epik_Charging_Adjusted_Penalty>
0.00112254459668156

> <i_epik_Tot_Q>
1

> <i_epik_Tot_abs_Q>
1

> <i_f3d_flags>
0

> <s_lp_Force_Field>
OPLS_2005

> <r_lp_Energy>
30.664046

> <b_lp_Chiralities_Consistent>
1

> <s_lp_Variant>
4-Anilinoquinazoline-1

> <s_i_glide_gridfile>
struct_1_site_1

> <i_i_glide_lignum>
103

> <i_i_glide_rotatable_bonds>
6

> <r_i_docking_score>
-7.77608478113369

> <r_i_glide_ligand_efficiency>
-0.268140854521851

> <r_i_glide_ligand_efficiency_sa>
-0.82381365807659

> <r_i_glide_ligand_efficiency_ln>
-1.78052623038311

> <r_i_glide_gscore>
-7.77608478113369

> <r_i_glide_lipo>
-2.74047123438608

> <r_i_glide_hbond>
-0.32

> <r_i_glide_metal>
0

> <r_i_glide_rewards>
-2.21366480570735

> <r_i_glide_evdw>
-39.0817718505859

> <r_i_glide_ecoul>
-7.78270244598389

> <r_i_glide_erotb>
0.619545218386614

> <r_i_glide_esite>
0

> <r_i_glide_emodel>
-52.9217403590651

> <r_i_glide_energy>
-46.8644742965698

> <r_i_glide_einternal>
6.80277967453003

> <i_i_glide_confnum>
109

> <i_i_glide_posenum>
211

> <r_i_glide_eff_state_penalty>
0

> <PMID>
11881999

> <Temp C>
25

> <r_glide_shape_similarity>
0.840749800205231

> <s_m_subgroup_title>
505 training

> <s_m_subgroupid>
pocket_pv

> <b_m_subgroup_collapsed>
0

$$$$
BindingDB_3564_mol_1
                    3D
 Schrodinger Suite 2021-2.
 40 42  0  0  1  0            999 V2000
   22.0744   -0.1688   53.4955 C   0  0  0  0  0  0
   21.2739   -1.1075   54.1784 C   0  0  0  0  0  0
   23.4390   -0.0997   53.8706 C   0  0  0  0  0  0
   23.0897   -1.7336   55.4098 C   0  0  0  0  0  0
   23.9352   -0.8993   54.8276 N   0  0  0  0  0  0
   21.7999   -1.8892   55.1388 N   0  0  0  0  0  0
   24.2990    0.8426   53.2938 N   0  0  0  0  0  0
   25.6883    0.9485   53.3488 C   0  0  0  0  0  0
   27.9106   -0.0506   53.3863 C   0  0  0  0  0  0
   26.5152   -0.1885   53.3379 C   0  0  0  0  0  0
   26.2750    2.2253   53.3687 C   0  0  0  0  0  0
   28.4911    1.2237   53.4404 C   0  0  0  0  0  0
   20.1480    0.5019   52.1283 C   0  0  0  0  0  0
   19.3262   -0.4008   52.8403 C   0  0  0  0  0  0
   27.6711    2.3595   53.4206 C   0  0  0  0  0  0
   19.9132   -1.2051   53.8442 C   0  0  0  0  0  0
   17.9932   -0.4867   52.5088 O   0  0  0  0  0  0
   17.1105   -1.1968   53.3520 C   0  0  0  0  0  0
   19.7763    1.2411   51.0238 O   0  0  0  0  0  0
   18.4191    1.5436   50.7635 C   0  0  0  0  0  0
   29.0134   -1.5917   53.3711 Br  0  0  0  0  0  0
   21.5015    0.6277   52.4789 C   0  0  0  0  0  0
   22.2754    1.4874   51.7451 O   0  0  0  0  0  0
   21.9856    2.8678   51.9201 C   0  0  0  0  0  0
   23.5025   -2.3746   56.1738 H   0  0  0  0  0  0
   23.8179    1.5635   52.7745 H   0  0  0  0  0  0
   26.0898   -1.1797   53.2943 H   0  0  0  0  0  0
   25.6609    3.1134   53.3510 H   0  0  0  0  0  0
   29.5648    1.3331   53.4783 H   0  0  0  0  0  0
   28.1095    3.3473   53.4409 H   0  0  0  0  0  0
   19.3234   -1.9170   54.4001 H   0  0  0  0  0  0
   16.0819   -1.0363   53.0248 H   0  0  0  0  0  0
   17.3054   -2.2690   53.3065 H   0  0  0  0  0  0
   17.1706   -0.8655   54.3878 H   0  0  0  0  0  0
   18.3759    2.3220   50.0061 H   0  0  0  0  0  0
   17.8820    0.6762   50.3690 H   0  0  0  0  0  0
   17.9115    1.9304   51.6515 H   0  0  0  0  0  0
   22.8246    3.4536   51.5410 H   0  0  0  0  0  0
   21.8648    3.1164   52.9744 H   0  0  0  0  0  0
   21.0976    3.1993   51.3765 H   0  0  0  0  0  0
  1  2  1  0  0  0
  1  3  2  0  0  0
  1 22  1  0  0  0
  2  6  2  0  0  0
  2 16  1  0  0  0
  3  5  1  0  0  0
  3  7  1  0  0  0
  4  5  2  0  0  0
  4  6  1  0  0  0
  4 25  1  0  0  0
  7  8  1  0  0  0
  7 26  1  0  0  0
  8 10  2  0  0  0
  8 11  1  0  0  0
  9 10  1  0  0  0
  9 12  2  0  0  0
  9 21  1  0  0  0
 10 27  1  0  0  0
 11 15  2  0  0  0
 11 28  1  0  0  0
 12 15  1  0  0  0
 12 29  1  0  0  0
 13 14  1  0  0  0
 13 19  1  0  0  0
 13 22  2  0  0  0
 14 16  2  0  0  0
 14 17  1  0  0  0
 15 30  1  0  0  0
 16 31  1  0  0  0
 17 18  1  0  0  0
 18 32  1  0  0  0
 18 33  1  0  0  0
 18 34  1  0  0  0
 19 20  1  0  0  0
 20 35  1  0  0  0
 20 36  1  0  0  0
 20 37  1  0  0  0
 22 23  1  0  0  0
 23 24  1  0  0  0
 24 38  1  0  0  0
 24 39  1  0  0  0
 24 40  1  0  0  0
M  END
> <s_m_entry_id>
278

> <s_m_entry_name>
pocket_pv.89

> <s_m_Source_Path>
/home/bortolaa/Project/GT/mario-master/docking/set505protein_struct_1_site_1_set505ligs_train

> <s_m_Source_File>
pocket_pv.maegz

> <i_m_Source_File_Index>
89

> <From>
www.bindingDB.org

> <BindingDB Reactant_set_id>
5326

> <Ligand InChI>
InChI=1S/C17H16BrN3O3/c1-22-13-8-12-14(16(24-3)15(13)23-2)17(20-9-19-12)21-11-6-4-5-10(18)7-11/h4-9H,1-3H3,(H,19,20,21)

> <Ligand InChI Key>
MMRJGOKRGZAQNE-UHFFFAOYSA-N

> <BindingDB MonomerID>
3564

> <BindingDB Ligand Name>
4-[(3-Bromophenyl)amino]-5,6,7-trimethoxyquinazoline::CHEMBL317925::N-(3-bromophenyl)-5,6,7-trimethoxyquinazolin-4-amine::PD153035 Analog::PD153035 Analog 64

> <Target Name Assigned by Curator or DataSource>
Epidermal growth factor receptor

> <Target Source Organism According to Curator or DataSource>
Homo sapiens

> <Ki (nM)>


> <Kd (nM)>


> <EC50 (nM)>


> <kon (M-1-s-1)>


> <koff (s-1)>


> <pH>


> <Temp C>


> <Curation/DataSource>
Curated from the literature by BindingDB

> <Article DOI>
10.1021/bi060184f

> <PMID>


> <PubChem AID>


> <Patent Number>


> <Authors>
Bridges, AJ; Zhou, HR; Cody, DR; Rewcastle, GW; McMichael, A; Showalter, HH; Fry, DW; Kraker, AJ; Denny, WA

> <Institution>
Parke-Davis Pharmaceutical Research

> <Link to Ligand in BindingDB>
http://www.bindingdb.org/bind/chemsearch/marvin/MolStructure.jsp?monomerid=3564

> <Link to Ligand-Target Pair in BindingDB>
http://www.bindingdb.org/jsp/dbsearch/PrimarySearch_ki.jsp?energyterm=kJ/mole&tag=r21&monomerid=3564&enzyme=Epidermal+growth+factor+receptor&column=ki&startPg=0&Increment=50&submit=Search

> <Ligand HET ID in PDB>


> <PDB ID(s) for Ligand-Target Complex>


> <PubChem CID>
5328228

> <PubChem SID>
8033287

> <ChEBI ID of Ligand>


> <ChEMBL ID of Ligand>
CHEMBL317925

> <DrugBank ID of Ligand>


> <IUPHAR_GRAC ID of Ligand>


> <KEGG ID of Ligand>


> <ZINC ID of Ligand>
ZINC03815066

> <Number of Protein Chains in Target (>
1

> <BindingDB Target Chain Sequence>
MRPSGTAGAALLALLAALCPASRALEEKKVCQGTSNKLTQLGTFEDHFLSLQRMFNNCEVVLGNLEITYVQRNYDLSFLKTIQEVAGYVLIALNTVERIPLENLQIIRGNMYYENSYALAVLSNYDANKTGLKELPMRNLQEILHGAVRFSNNPALCNVESIQWRDIVSSDFLSNMSMDFQNHLGSCQKCDPSCPNGSCWGAGEENCQKLTKIICAQQCSGRCRGKSPSDCCHNQCAAGCTGPRESDCLVCRKFRDEATCKDTCPPLMLYNPTTYQMDVNPEGKYSFGATCVKKCPRNYVVTDHGSCVRACGADSYEMEEDGVRKCKKCEGPCRKVCNGIGIGEFKDSLSINATNIKHFKNCTSISGDLHILPVAFRGDSFTHTPPLDPQELDILKTVKEITGFLLIQAWPENRTDLHAFENLEIIRGRTKQHGQFSLAVVSLNITSLGLRSLKEISDGDVIISGNKNLCYANTINWKKLFGTSGQKTKIISNRGENSCKATGQVCHALCSPEGCWGPEPRDCVSCRNVSRGRECVDKCNLLEGEPREFVENSECIQCHPECLPQAMNITCTGRGPDNCIQCAHYIDGPHCVKTCPAGVMGENNTLVWKYADAGHVCHLCHPNCTYGCTGPGLEGCPTNGPKIPSIATGMVGALLLLLVVALGIGLFMRRRHIVRKRTLRRLLQERELVEPLTPSGEAPNQALLRILKETEFKKIKVLGSGAFGTVYKGLWIPEGEKVKIPVAIKELREATSPKANKEILDEAYVMASVDNPHVCRLLGICLTSTVQLITQLMPFGCLLDYVREHKDNIGSQYLLNWCVQIAKGMNYLEDRRLVHRDLAARNVLVKTPQHVKITDFGLAKLLGAEEKEYHAEGGKVPIKWMALESILHRIYTHQSDVWSYGVTVWELMTFGSKPYDGIPASEISSILEKGERLPQPPICTIDVYMIMVKCWMIDADSRPKFRELIIEFSKMARDPQRYLVIQGDERMHLPSPTDSNFYRALMDEEDMDDVVDADEYLIPQQGFFSSPSTSRTPLLSSLSATSNNSTVACIDRNGLQSCPIKEDSFLQRYSSDPTGALTEDSIDDTFLPVPEYINQSVPKRPAGSVQNPVYHNQPLNPAPSRDPHYQDPHSTAVGNPEYLNTVQPTCVNSTFDSPAHWAQKGSHQISLDNPDYQQDFFPKEAKPNGIFKGSTAENAEYLRVAPQSSEFIGA

> <PDB ID(s) of Target Chain>
1IVO,1M14,1M17,1MOX,1XKK,1Z9I,2GS2,2GS6,2ITW,2ITX,2ITY,2J5E,2J5F,2J6M,2RF9,2RGP,3B2V,3BEL,3GOP,3POZ,3QWQ,3VJO,3W2O,3W2P,3W2Q,3W2R,3W2S,3W32,3W33,4G5J,4I23,4JQ7,4JQ8,4JR3,4JRV,4KRO,4LI5,4RJ4,4RJ5,4RJ6,4RJ7,4RJ8,4TKS,4UIP,4UV7,4WKQ,4WRG,4ZAU,5C8K,5C8M,5C8N,5CAL,5CAN,5CAO,5CAP,5CAQ,5CAS,5CAU,5CAV,5EDP,5EDQ,5EDR,5EM5,5EM6,5EM7,5EM8,5FED,5GNK,5HCX,5HCY,5HCZ,5HIB,5HIC,5UGB,5WB7,5WB8,5Y25,6S89,6S8A

> <UniProt (SwissProt) Recommended Name of Target Chain>
Epidermal growth factor receptor

> <UniProt (SwissProt) Entry Name of Target Chain>
EGFR_HUMAN

> <UniProt (SwissProt) Primary ID of Target Chain>
P00533

> <UniProt (SwissProt) Secondary ID(s) of Target Chain>
O00688,O00732,P06268,Q14225,Q68GS5,Q92795,Q9BZS2,Q9GZX1,Q9H2C9,Q9H3C9,Q9UMD7,Q9UMD8,Q9UMG5

> <UniProt (SwissProt) Alternative ID(s) of Target Chain>


> <UniProt (TrEMBL) Submitted Name of Target Chain>


> <UniProt (TrEMBL) Entry Name of Target Chain>


> <UniProt (TrEMBL) Primary ID of Target Chain>


> <UniProt (TrEMBL) Secondary ID(s) of Target Chain>


> <UniProt (TrEMBL) Alternative ID(s) of Target Chain>


> <training label>
9.17393

> <i_lp_mmshare_version>
54117

> <s_epik_input>
W0NIM11PYzFjKE9bQ0gzXSljKE9bQ0gzXSlbY0hdYyhjMTIpbltjSF1uYzJbTkhdYzNbY0hdYyhCcilbY0hdW2NIXVtjSF0z

> <s_epik_cmdline>
J2VwaWtfcHl0aG9uJywgJy1waHQnLCAnMC4xJywgJy1waCcsICc3LjQnLCAnLXRuJywgJzgnLCAnLW1hJywgJzIwMCcsICctaW1hZScsICc8aW5maWxlLm1hZT4nLCAnLW9tYWUnLCAnPG91dGZpbGUubWFlPic=

> <r_lp_tautomer_probability>
1

> <r_epik_Ionization_Penalty>
  0.0017

> <r_epik_Ionization_Penalty_Charging>
  0.0000

> <r_epik_Ionization_Penalty_Neutral>
  0.0017

> <r_epik_State_Penalty>
  0.0000

> <r_epik_Charging_Adjusted_Penalty>
0

> <i_epik_Tot_Q>
0

> <i_epik_Tot_abs_Q>
0

> <i_f3d_flags>
0

> <s_lp_Force_Field>
OPLS_2005

> <r_lp_Energy>
34.953936

> <b_lp_Chiralities_Consistent>
1

> <s_lp_Variant>
BindingDB_3564_mol_1-1

> <s_i_glide_gridfile>
struct_1_site_1

> <i_i_glide_lignum>
282

> <i_i_glide_rotatable_bonds>
5

> <r_i_docking_score>
-7.77164301850894

> <r_i_glide_ligand_efficiency>
-0.323818459104539

> <r_i_glide_ligand_efficiency_sa>
-0.934054066012766

> <r_i_glide_ligand_efficiency_ln>
-1.8601107917898

> <r_i_glide_gscore>
-7.77164301850894

> <r_i_glide_lipo>
-2.93583449326863

> <r_i_glide_hbond>
-0.32

> <r_i_glide_metal>
0

> <r_i_glide_rewards>
-1.90950471055785

> <r_i_glide_evdw>
-41.9050559997559

> <r_i_glide_ecoul>
-5.11458969116211

> <r_i_glide_erotb>
0.256137438979654

> <r_i_glide_esite>
0

> <r_i_glide_emodel>
-49.233478620275

> <r_i_glide_energy>
-47.019645690918

> <r_i_glide_einternal>
3.05529117584229

> <i_i_glide_confnum>
6

> <i_i_glide_posenum>
65

> <r_i_glide_eff_state_penalty>
0

> <IC50 (nM)>
0.67

> <r_glide_shape_similarity>
0.80092453956604

> <s_m_subgroup_title>
505 training

> <s_m_subgroupid>
pocket_pv

> <b_m_subgroup_collapsed>
0

$$$$
BindingDB_50133384_mol_1
                    3D
 Schrodinger Suite 2021-2.
 33 35  0  0  1  0            999 V2000
   23.4377   -0.0992   53.8667 C   0  0  0  0  0  0
   22.0743   -0.1696   53.5056 C   0  0  0  0  0  0
   23.9369   -0.8985   54.8228 N   0  0  0  0  0  0
   24.2895    0.8447   53.2754 N   0  0  0  0  0  0
   21.2717   -1.1132   54.1826 C   0  0  0  0  0  0
   21.8030   -1.8938   55.1393 N   0  0  0  0  0  0
   23.0938   -1.7349   55.4098 C   0  0  0  0  0  0
   21.5119    0.6435   52.5037 C   0  0  0  0  0  0
   25.6840    0.9478   53.3442 C   0  0  0  0  0  0
   19.9107   -1.2114   53.8393 C   0  0  0  0  0  0
   20.1587    0.5159   52.1586 C   0  0  0  0  0  0
   26.5162   -0.1881   53.3331 C   0  0  0  0  0  0
   19.6390    1.2954   51.1365 N   0  0  0  0  0  0
   19.3446   -0.4007   52.8415 C   0  0  0  0  0  0
   27.9137   -0.0551   53.3783 C   0  0  0  0  0  0
   27.6691    2.3587   53.4244 C   0  0  0  0  0  0
   26.2730    2.2241   53.3698 C   0  0  0  0  0  0
   28.4902    1.2231   53.4409 C   0  0  0  0  0  0
   28.7886   -1.2869   53.3210 C   0  0  0  0  0  0
   23.8227    1.6177   52.8366 H   0  0  0  0  0  0
   23.5050   -2.3747   56.1758 H   0  0  0  0  0  0
   22.1182    1.3576   51.9678 H   0  0  0  0  0  0
   19.2828   -1.9178   54.3622 H   0  0  0  0  0  0
   26.0853   -1.1773   53.2768 H   0  0  0  0  0  0
   20.2258    1.8739   50.5540 H   0  0  0  0  0  0
   18.6763    1.2016   50.8411 H   0  0  0  0  0  0
   18.2958   -0.4946   52.5983 H   0  0  0  0  0  0
   28.1090    3.3459   53.4552 H   0  0  0  0  0  0
   25.6638    3.1176   53.3594 H   0  0  0  0  0  0
   29.5647    1.3405   53.4814 H   0  0  0  0  0  0
   29.7945   -1.0446   52.9709 H   0  0  0  0  0  0
   28.3665   -2.0287   52.6405 H   0  0  0  0  0  0
   28.8730   -1.7434   54.3036 H   0  0  0  0  0  0
  1  2  2  0  0  0
  1  3  1  0  0  0
  1  4  1  0  0  0
  2  5  1  0  0  0
  2  8  1  0  0  0
  3  7  2  0  0  0
  4  9  1  0  0  0
  4 20  1  0  0  0
  5  6  2  0  0  0
  5 10  1  0  0  0
  6  7  1  0  0  0
  7 21  1  0  0  0
  8 11  2  0  0  0
  8 22  1  0  0  0
  9 12  2  0  0  0
  9 17  1  0  0  0
 10 14  2  0  0  0
 10 23  1  0  0  0
 11 13  1  0  0  0
 11 14  1  0  0  0
 12 15  1  0  0  0
 12 24  1  0  0  0
 13 25  1  0  0  0
 13 26  1  0  0  0
 14 27  1  0  0  0
 15 18  2  0  0  0
 15 19  1  0  0  0
 16 17  2  0  0  0
 16 18  1  0  0  0
 16 28  1  0  0  0
 17 29  1  0  0  0
 18 30  1  0  0  0
 19 31  1  0  0  0
 19 32  1  0  0  0
 19 33  1  0  0  0
M  END
> <s_m_entry_id>
279

> <s_m_entry_name>
pocket_pv.90

> <s_m_Source_Path>
/home/bortolaa/Project/GT/mario-master/docking/set505protein_struct_1_site_1_set505ligs_train

> <s_m_Source_File>
pocket_pv.maegz

> <i_m_Source_File_Index>
90

> <From>
www.bindingDB.org

> <BindingDB Reactant_set_id>
154840

> <Ligand InChI>
InChI=1S/C15H14N4/c1-10-3-2-4-12(7-10)19-15-13-8-11(16)5-6-14(13)17-9-18-15/h2-9H,16H2,1H3,(H,17,18,19)

> <Ligand InChI Key>
NFBCSWGEYDCCDW-UHFFFAOYSA-N

> <BindingDB MonomerID>
50133384

> <BindingDB Ligand Name>
Anilinoquinazoline, 4a::CHEMBL336113::N*4*-m-Tolyl-quinazoline-4,6-diamine::N4-(3-methylphenyl)-4,6-quinazolinediamine

> <Target Name Assigned by Curator or DataSource>
Epidermal growth factor receptor

> <Target Source Organism According to Curator or DataSource>
Homo sapiens

> <Ki (nM)>


> <IC50 (nM)>
1000

> <Kd (nM)>


> <EC50 (nM)>


> <kon (M-1-s-1)>


> <koff (s-1)>


> <pH>


> <Curation/DataSource>
Curated from the literature by BindingDB

> <Article DOI>
10.1111/j.1747-0285.2008.00638.x

> <PubChem AID>


> <Patent Number>


> <Authors>
Larroque, AL; Peori, B; Williams, C; Fang, YQ; Qiu, Q; Rachid, Z; Jean-Claude, BJ

> <Institution>
McGill University/Royal Victoria Hospital

> <Link to Ligand in BindingDB>
http://www.bindingdb.org/bind/chemsearch/marvin/MolStructure.jsp?monomerid=50133384

> <Link to Ligand-Target Pair in BindingDB>
http://www.bindingdb.org/jsp/dbsearch/PrimarySearch_ki.jsp?energyterm=kJ/mole&tag=r21&monomerid=50133384&enzyme=Epidermal+growth+factor+receptor&column=ki&startPg=0&Increment=50&submit=Search

> <Ligand HET ID in PDB>


> <PDB ID(s) for Ligand-Target Complex>


> <PubChem CID>
10220590

> <PubChem SID>
104024215

> <ChEBI ID of Ligand>


> <ChEMBL ID of Ligand>
CHEMBL336113

> <DrugBank ID of Ligand>


> <IUPHAR_GRAC ID of Ligand>


> <KEGG ID of Ligand>


> <ZINC ID of Ligand>
ZINC00006328

> <Number of Protein Chains in Target (>
1

> <BindingDB Target Chain Sequence>
MRPSGTAGAALLALLAALCPASRALEEKKVCQGTSNKLTQLGTFEDHFLSLQRMFNNCEVVLGNLEITYVQRNYDLSFLKTIQEVAGYVLIALNTVERIPLENLQIIRGNMYYENSYALAVLSNYDANKTGLKELPMRNLQEILHGAVRFSNNPALCNVESIQWRDIVSSDFLSNMSMDFQNHLGSCQKCDPSCPNGSCWGAGEENCQKLTKIICAQQCSGRCRGKSPSDCCHNQCAAGCTGPRESDCLVCRKFRDEATCKDTCPPLMLYNPTTYQMDVNPEGKYSFGATCVKKCPRNYVVTDHGSCVRACGADSYEMEEDGVRKCKKCEGPCRKVCNGIGIGEFKDSLSINATNIKHFKNCTSISGDLHILPVAFRGDSFTHTPPLDPQELDILKTVKEITGFLLIQAWPENRTDLHAFENLEIIRGRTKQHGQFSLAVVSLNITSLGLRSLKEISDGDVIISGNKNLCYANTINWKKLFGTSGQKTKIISNRGENSCKATGQVCHALCSPEGCWGPEPRDCVSCRNVSRGRECVDKCNLLEGEPREFVENSECIQCHPECLPQAMNITCTGRGPDNCIQCAHYIDGPHCVKTCPAGVMGENNTLVWKYADAGHVCHLCHPNCTYGCTGPGLEGCPTNGPKIPSIATGMVGALLLLLVVALGIGLFMRRRHIVRKRTLRRLLQERELVEPLTPSGEAPNQALLRILKETEFKKIKVLGSGAFGTVYKGLWIPEGEKVKIPVAIKELREATSPKANKEILDEAYVMASVDNPHVCRLLGICLTSTVQLITQLMPFGCLLDYVREHKDNIGSQYLLNWCVQIAKGMNYLEDRRLVHRDLAARNVLVKTPQHVKITDFGLAKLLGAEEKEYHAEGGKVPIKWMALESILHRIYTHQSDVWSYGVTVWELMTFGSKPYDGIPASEISSILEKGERLPQPPICTIDVYMIMVKCWMIDADSRPKFRELIIEFSKMARDPQRYLVIQGDERMHLPSPTDSNFYRALMDEEDMDDVVDADEYLIPQQGFFSSPSTSRTPLLSSLSATSNNSTVACIDRNGLQSCPIKEDSFLQRYSSDPTGALTEDSIDDTFLPVPEYINQSVPKRPAGSVQNPVYHNQPLNPAPSRDPHYQDPHSTAVGNPEYLNTVQPTCVNSTFDSPAHWAQKGSHQISLDNPDYQQDFFPKEAKPNGIFKGSTAENAEYLRVAPQSSEFIGA

> <PDB ID(s) of Target Chain>
1IVO,1M14,1M17,1MOX,1XKK,1Z9I,2GS2,2GS6,2ITW,2ITX,2ITY,2J5E,2J5F,2J6M,2RF9,2RGP,3B2V,3BEL,3GOP,3POZ,3QWQ,3VJO,3W2O,3W2P,3W2Q,3W2R,3W2S,3W32,3W33,4G5J,4I23,4JQ7,4JQ8,4JR3,4JRV,4KRO,4LI5,4RJ4,4RJ5,4RJ6,4RJ7,4RJ8,4TKS,4UIP,4UV7,4WKQ,4WRG,4ZAU,5C8K,5C8M,5C8N,5CAL,5CAN,5CAO,5CAP,5CAQ,5CAS,5CAU,5CAV,5EDP,5EDQ,5EDR,5EM5,5EM6,5EM7,5EM8,5FED,5GNK,5HCX,5HCY,5HCZ,5HIB,5HIC,5UGB,5WB7,5WB8,5Y25,6S89,6S8A

> <UniProt (SwissProt) Recommended Name of Target Chain>
Epidermal growth factor receptor

> <UniProt (SwissProt) Entry Name of Target Chain>
EGFR_HUMAN

> <UniProt (SwissProt) Primary ID of Target Chain>
P00533

> <UniProt (SwissProt) Secondary ID(s) of Target Chain>
O00688,O00732,P06268,Q14225,Q68GS5,Q92795,Q9BZS2,Q9GZX1,Q9H2C9,Q9H3C9,Q9UMD7,Q9UMD8,Q9UMG5

> <UniProt (SwissProt) Alternative ID(s) of Target Chain>


> <UniProt (TrEMBL) Submitted Name of Target Chain>


> <UniProt (TrEMBL) Entry Name of Target Chain>


> <UniProt (TrEMBL) Primary ID of Target Chain>


> <UniProt (TrEMBL) Secondary ID(s) of Target Chain>


> <UniProt (TrEMBL) Alternative ID(s) of Target Chain>


> <training label>
6

> <i_lp_mmshare_version>
54117

> <s_epik_input>
W2NIXTFbY0hdW2NIXWMoW0NIM10pW2NIXWMxW05IXWMybltjSF1uYyhjMjMpW2NIXVtjSF1jKFtjSF0zKVtOSDJd

> <s_epik_cmdline>
J2VwaWtfcHl0aG9uJywgJy1waHQnLCAnMC4xJywgJy1waCcsICc3LjQnLCAnLXRuJywgJzgnLCAnLW1hJywgJzIwMCcsICctaW1hZScsICc8aW5maWxlLm1hZT4nLCAnLW9tYWUnLCAnPG91dGZpbGUubWFlPic=

> <r_lp_tautomer_probability>
1

> <r_epik_Ionization_Penalty>
  0.0005

> <r_epik_Ionization_Penalty_Charging>
  0.0000

> <r_epik_Ionization_Penalty_Neutral>
  0.0005

> <r_epik_State_Penalty>
  0.0000

> <r_epik_Charging_Adjusted_Penalty>
0

> <i_epik_Tot_Q>
0

> <i_epik_Tot_abs_Q>
0

> <i_f3d_flags>
0

> <s_lp_Force_Field>
OPLS_2005

> <r_lp_Energy>
12.594939

> <b_lp_Chiralities_Consistent>
1

> <s_lp_Variant>
BindingDB_50133384_mol_1-1

> <s_i_glide_gridfile>
struct_1_site_1

> <i_i_glide_lignum>
66

> <i_i_glide_rotatable_bonds>
2

> <r_i_docking_score>
-7.76250499689387

> <r_i_glide_ligand_efficiency>
-0.408552894573361

> <r_i_glide_ligand_efficiency_sa>
-1.09018321639969

> <r_i_glide_ligand_efficiency_ln>
-1.96796174003287

> <r_i_glide_gscore>
-7.76250499689387

> <r_i_glide_lipo>
-2.63570041107475

> <r_i_glide_hbond>
-0.32

> <r_i_glide_metal>
0

> <r_i_glide_rewards>
-2.86316052513838

> <r_i_glide_evdw>
-33.0672302246094

> <r_i_glide_ecoul>
-5.66092157363892

> <r_i_glide_erotb>
0.558855686595573

> <r_i_glide_esite>
0

> <r_i_glide_emodel>
-31.1418247594743

> <r_i_glide_energy>
-38.7281517982483

> <r_i_glide_einternal>
2.93035554885864

> <i_i_glide_confnum>
2

> <i_i_glide_posenum>
129

> <r_i_glide_eff_state_penalty>
0

> <PMID>
18324926

> <Temp C>
37

> <r_glide_shape_similarity>
0.742652773857117

> <s_m_subgroup_title>
505 training

> <s_m_subgroupid>
pocket_pv

> <b_m_subgroup_collapsed>
0

$$$$
BindingDB_50095261_mol_1
                    3D
 Schrodinger Suite 2021-2.
 42 44  0  0  1  0            999 V2000
   22.0765   -0.1690   53.5053 C   0  0  0  0  0  0
   23.4384   -0.0992   53.8689 C   0  0  0  0  0  0
   21.2662   -1.1065   54.1804 C   0  0  0  0  0  0
   21.5308    0.6459   52.4996 C   0  0  0  0  0  0
   23.9367   -0.9003   54.8246 N   0  0  0  0  0  0
   19.9021   -1.1935   53.8297 C   0  0  0  0  0  0
   24.2898    0.8464   53.2779 N   0  0  0  0  0  0
   20.1813    0.5304   52.1372 C   0  0  0  0  0  0
   19.3559   -0.3732   52.8151 C   0  0  0  0  0  0
   21.7984   -1.8895   55.1374 N   0  0  0  0  0  0
   23.0911   -1.7355   55.4094 C   0  0  0  0  0  0
   25.6838    0.9470   53.3432 C   0  0  0  0  0  0
   26.5148   -0.1889   53.3343 C   0  0  0  0  0  0
   27.9108   -0.0503   53.3832 C   0  0  0  0  0  0
   19.6132    1.3053   51.1573 O   0  0  0  0  0  0
   18.0554   -0.3962   52.3763 O   0  0  0  0  0  0
   28.9098   -1.4460   53.3745 Cl  0  0  0  0  0  0
   27.6689    2.3586   53.4229 C   0  0  0  0  0  0
   26.2733    2.2232   53.3691 C   0  0  0  0  0  0
   28.4910    1.2239   53.4377 C   0  0  0  0  0  0
   20.3798    1.5644   49.9933 C   0  0  0  0  0  0
   17.0437   -0.8659   53.2332 C   0  0  0  0  0  0
   19.4812    2.3214   49.0151 C   0  0  0  0  0  0
   15.7211   -0.2663   52.7426 C   0  0  0  0  0  0
   22.1530    1.3633   51.9904 H   0  0  0  0  0  0
   19.2777   -1.9032   54.3501 H   0  0  0  0  0  0
   23.8239    1.6216   52.8387 H   0  0  0  0  0  0
   23.4970   -2.3704   56.1825 H   0  0  0  0  0  0
   26.0878   -1.1797   53.2861 H   0  0  0  0  0  0
   28.1078    3.3460   53.4549 H   0  0  0  0  0  0
   25.6624    3.1158   53.3600 H   0  0  0  0  0  0
   29.5664    1.3339   53.4792 H   0  0  0  0  0  0
   20.7137    0.6266   49.5424 H   0  0  0  0  0  0
   21.2575    2.1744   50.2084 H   0  0  0  0  0  0
   17.0075   -1.9553   53.2064 H   0  0  0  0  0  0
   17.2266   -0.5609   54.2621 H   0  0  0  0  0  0
   20.0160    2.5455   48.0915 H   0  0  0  0  0  0
   19.1406    3.2651   49.4449 H   0  0  0  0  0  0
   18.6013    1.7301   48.7552 H   0  0  0  0  0  0
   14.8923   -0.5937   53.3706 H   0  0  0  0  0  0
   15.7490    0.8221   52.7714 H   0  0  0  0  0  0
   15.5098   -0.5690   51.7174 H   0  0  0  0  0  0
  1  2  2  0  0  0
  1  3  1  0  0  0
  1  4  1  0  0  0
  2  5  1  0  0  0
  2  7  1  0  0  0
  3  6  1  0  0  0
  3 10  2  0  0  0
  4  8  2  0  0  0
  4 25  1  0  0  0
  5 11  2  0  0  0
  6  9  2  0  0  0
  6 26  1  0  0  0
  7 12  1  0  0  0
  7 27  1  0  0  0
  8  9  1  0  0  0
  8 15  1  0  0  0
  9 16  1  0  0  0
 10 11  1  0  0  0
 11 28  1  0  0  0
 12 13  2  0  0  0
 12 19  1  0  0  0
 13 14  1  0  0  0
 13 29  1  0  0  0
 14 17  1  0  0  0
 14 20  2  0  0  0
 15 21  1  0  0  0
 16 22  1  0  0  0
 18 19  2  0  0  0
 18 20  1  0  0  0
 18 30  1  0  0  0
 19 31  1  0  0  0
 20 32  1  0  0  0
 21 23  1  0  0  0
 21 33  1  0  0  0
 21 34  1  0  0  0
 22 24  1  0  0  0
 22 35  1  0  0  0
 22 36  1  0  0  0
 23 37  1  0  0  0
 23 38  1  0  0  0
 23 39  1  0  0  0
 24 40  1  0  0  0
 24 41  1  0  0  0
 24 42  1  0  0  0
M  END
> <s_m_entry_id>
280

> <s_m_entry_name>
pocket_pv.91

> <s_m_Source_Path>
/home/bortolaa/Project/GT/mario-master/docking/set505protein_struct_1_site_1_set505ligs_train

> <s_m_Source_File>
pocket_pv.maegz

> <i_m_Source_File_Index>
91

> <From>
www.bindingDB.org

> <BindingDB Reactant_set_id>
50844856

> <Ligand InChI>
InChI=1S/C18H18ClN3O2/c1-3-23-16-9-14-15(10-17(16)24-4-2)20-11-21-18(14)22-13-7-5-6-12(19)8-13/h5-11H,3-4H2,1-2H3,(H,20,21,22)

> <Ligand InChI Key>
VXCUTOVXETTYDM-UHFFFAOYSA-N

> <BindingDB MonomerID>
50095261

> <BindingDB Ligand Name>
(3-Chloro-phenyl)-(6,7-diethoxy-quinazolin-4-yl)-amine::4-(3'-chloroanilino)-6,7-diethoxyquinazoline hydrochloride::CHEMBL64950

> <Target Name Assigned by Curator or DataSource>
Epidermal growth factor receptor

> <Target Source Organism According to Curator or DataSource>
Homo sapiens

> <Ki (nM)>


> <Kd (nM)>


> <EC50 (nM)>


> <kon (M-1-s-1)>


> <koff (s-1)>


> <pH>


> <Temp C>


> <Curation/DataSource>
ChEMBL

> <Article DOI>
10.1021/jm050607w

> <PubChem AID>


> <Patent Number>


> <Authors>
VanBrocklin, HF; Lim, JK; Coffing, SL; Hom, DL; Negash, K; Ono, MY; Gilmore, JL; Bryant, I; Riese, DJ

> <Institution>
Lawrence Berkeley National Laboratory

> <Link to Ligand in BindingDB>
http://www.bindingdb.org/bind/chemsearch/marvin/MolStructure.jsp?monomerid=50095261

> <Link to Ligand-Target Pair in BindingDB>
http://www.bindingdb.org/jsp/dbsearch/PrimarySearch_ki.jsp?energyterm=kJ/mole&tag=r21&monomerid=50095261&enzyme=Epidermal+growth+factor+receptor&column=ki&startPg=0&Increment=50&submit=Search

> <Ligand HET ID in PDB>


> <PDB ID(s) for Ligand-Target Complex>


> <PubChem CID>
11660897

> <PubChem SID>
103992999

> <ChEBI ID of Ligand>


> <ChEMBL ID of Ligand>
CHEMBL64950

> <DrugBank ID of Ligand>


> <IUPHAR_GRAC ID of Ligand>


> <KEGG ID of Ligand>


> <ZINC ID of Ligand>
ZINC13528687

> <Number of Protein Chains in Target (>
1

> <BindingDB Target Chain Sequence>
MRPSGTAGAALLALLAALCPASRALEEKKVCQGTSNKLTQLGTFEDHFLSLQRMFNNCEVVLGNLEITYVQRNYDLSFLKTIQEVAGYVLIALNTVERIPLENLQIIRGNMYYENSYALAVLSNYDANKTGLKELPMRNLQEILHGAVRFSNNPALCNVESIQWRDIVSSDFLSNMSMDFQNHLGSCQKCDPSCPNGSCWGAGEENCQKLTKIICAQQCSGRCRGKSPSDCCHNQCAAGCTGPRESDCLVCRKFRDEATCKDTCPPLMLYNPTTYQMDVNPEGKYSFGATCVKKCPRNYVVTDHGSCVRACGADSYEMEEDGVRKCKKCEGPCRKVCNGIGIGEFKDSLSINATNIKHFKNCTSISGDLHILPVAFRGDSFTHTPPLDPQELDILKTVKEITGFLLIQAWPENRTDLHAFENLEIIRGRTKQHGQFSLAVVSLNITSLGLRSLKEISDGDVIISGNKNLCYANTINWKKLFGTSGQKTKIISNRGENSCKATGQVCHALCSPEGCWGPEPRDCVSCRNVSRGRECVDKCNLLEGEPREFVENSECIQCHPECLPQAMNITCTGRGPDNCIQCAHYIDGPHCVKTCPAGVMGENNTLVWKYADAGHVCHLCHPNCTYGCTGPGLEGCPTNGPKIPSIATGMVGALLLLLVVALGIGLFMRRRHIVRKRTLRRLLQERELVEPLTPSGEAPNQALLRILKETEFKKIKVLGSGAFGTVYKGLWIPEGEKVKIPVAIKELREATSPKANKEILDEAYVMASVDNPHVCRLLGICLTSTVQLITQLMPFGCLLDYVREHKDNIGSQYLLNWCVQIAKGMNYLEDRRLVHRDLAARNVLVKTPQHVKITDFGLAKLLGAEEKEYHAEGGKVPIKWMALESILHRIYTHQSDVWSYGVTVWELMTFGSKPYDGIPASEISSILEKGERLPQPPICTIDVYMIMVKCWMIDADSRPKFRELIIEFSKMARDPQRYLVIQGDERMHLPSPTDSNFYRALMDEEDMDDVVDADEYLIPQQGFFSSPSTSRTPLLSSLSATSNNSTVACIDRNGLQSCPIKEDSFLQRYSSDPTGALTEDSIDDTFLPVPEYINQSVPKRPAGSVQNPVYHNQPLNPAPSRDPHYQDPHSTAVGNPEYLNTVQPTCVNSTFDSPAHWAQKGSHQISLDNPDYQQDFFPKEAKPNGIFKGSTAENAEYLRVAPQSSEFIGA

> <PDB ID(s) of Target Chain>
1IVO,1M14,1M17,1MOX,1XKK,1Z9I,2GS2,2GS6,2ITW,2ITX,2ITY,2J5E,2J5F,2J6M,2RF9,2RGP,3B2V,3BEL,3GOP,3POZ,3QWQ,3VJO,3W2O,3W2P,3W2Q,3W2R,3W2S,3W32,3W33,4G5J,4I23,4JQ7,4JQ8,4JR3,4JRV,4KRO,4LI5,4RJ4,4RJ5,4RJ6,4RJ7,4RJ8,4TKS,4UIP,4UV7,4WKQ,4WRG,4ZAU,5C8K,5C8M,5C8N,5CAL,5CAN,5CAO,5CAP,5CAQ,5CAS,5CAU,5CAV,5EDP,5EDQ,5EDR,5EM5,5EM6,5EM7,5EM8,5FED,5GNK,5HCX,5HCY,5HCZ,5HIB,5HIC,5UGB,5WB7,5WB8,5Y25,6S89,6S8A

> <UniProt (SwissProt) Recommended Name of Target Chain>
Epidermal growth factor receptor

> <UniProt (SwissProt) Entry Name of Target Chain>
EGFR_HUMAN

> <UniProt (SwissProt) Primary ID of Target Chain>
P00533

> <UniProt (SwissProt) Secondary ID(s) of Target Chain>
O00688,O00732,P06268,Q14225,Q68GS5,Q92795,Q9BZS2,Q9GZX1,Q9H2C9,Q9H3C9,Q9UMD7,Q9UMD8,Q9UMG5

> <UniProt (SwissProt) Alternative ID(s) of Target Chain>


> <UniProt (TrEMBL) Submitted Name of Target Chain>


> <UniProt (TrEMBL) Entry Name of Target Chain>


> <UniProt (TrEMBL) Primary ID of Target Chain>


> <UniProt (TrEMBL) Secondary ID(s) of Target Chain>


> <UniProt (TrEMBL) Alternative ID(s) of Target Chain>


> <training label>
8.92082

> <i_lp_mmshare_version>
54117

> <s_epik_input>
W0NIM11bQ0gyXU9jKFtjSF0xKWMoT1tDSDJdW0NIM10pW2NIXWMoYzEyKW5bY0hdbmMyW05IXWMzW2NIXWMoQ2wpW2NIXVtjSF1bY0hdMw==

> <s_epik_cmdline>
J2VwaWtfcHl0aG9uJywgJy1waHQnLCAnMC4xJywgJy1waCcsICc3LjQnLCAnLXRuJywgJzgnLCAnLW1hJywgJzIwMCcsICctaW1hZScsICc8aW5maWxlLm1hZT4nLCAnLW9tYWUnLCAnPG91dGZpbGUubWFlPic=

> <r_lp_tautomer_probability>
1

> <r_epik_Ionization_Penalty>
  0.0005

> <r_epik_Ionization_Penalty_Charging>
  0.0000

> <r_epik_Ionization_Penalty_Neutral>
  0.0005

> <r_epik_State_Penalty>
  0.0000

> <r_epik_Charging_Adjusted_Penalty>
0

> <i_epik_Tot_Q>
0

> <i_epik_Tot_abs_Q>
0

> <i_f3d_flags>
0

> <s_lp_Force_Field>
OPLS_2005

> <r_lp_Energy>
19.950633

> <b_lp_Chiralities_Consistent>
1

> <s_lp_Variant>
BindingDB_50095261_mol_1-1

> <s_i_glide_gridfile>
struct_1_site_1

> <i_i_glide_lignum>
276

> <i_i_glide_rotatable_bonds>
6

> <r_i_docking_score>
-7.76246666873753

> <r_i_glide_ligand_efficiency>
-0.323436111197397

> <r_i_glide_ligand_efficiency_sa>
-0.932951183804367

> <r_i_glide_ligand_efficiency_ln>
-1.85791447021425

> <r_i_glide_gscore>
-7.76246666873753

> <r_i_glide_lipo>
-3.018439728968

> <r_i_glide_hbond>
-0.32

> <r_i_glide_metal>
0

> <r_i_glide_rewards>
-2.22506092111083

> <r_i_glide_evdw>
-40.723705291748

> <r_i_glide_ecoul>
-5.36699819564819

> <r_i_glide_erotb>
0.642268975275934

> <r_i_glide_esite>
0

> <r_i_glide_emodel>
-54.2413064041119

> <r_i_glide_energy>
-46.0907034873962

> <r_i_glide_einternal>
3.29897832870483

> <i_i_glide_confnum>
20

> <i_i_glide_posenum>
392

> <r_i_glide_eff_state_penalty>
0

> <IC50 (nM)>
1.2

> <PMID>
16279804

> <r_glide_shape_similarity>
0.858990490436554

> <s_m_subgroup_title>
505 training

> <s_m_subgroupid>
pocket_pv

> <b_m_subgroup_collapsed>
0

$$$$
Tarceva
                    3D
 Schrodinger Suite 2021-2.
 52 54  0  0  1  0            999 V2000
   21.5398    0.6555   52.5042 C   0  0  0  0  0  0
   19.3472   -0.3574   52.8142 C   0  0  0  0  0  0
   19.9007   -1.1914   53.8295 C   0  0  0  0  0  0
   22.0804   -0.1713   53.5076 C   0  0  0  0  0  0
   21.2671   -1.1138   54.1848 C   0  0  0  0  0  0
   23.4436   -0.1004   53.8750 C   0  0  0  0  0  0
   23.0991   -1.7509   55.4177 C   0  0  0  0  0  0
   23.9429   -0.9019   54.8389 N   0  0  0  0  0  0
   21.8015   -1.9046   55.1442 N   0  0  0  0  0  0
   24.2913    0.8509   53.2798 N   0  0  0  0  0  0
   25.6845    0.9499   53.3462 C   0  0  0  0  0  0
   27.6761    2.3642   53.4262 C   0  0  0  0  0  0
   26.2754    2.2291   53.3732 C   0  0  0  0  0  0
   26.5127   -0.1934   53.3358 C   0  0  0  0  0  0
   28.4987    1.2274   53.4384 C   0  0  0  0  0  0
   27.9151   -0.0538   53.3829 C   0  0  0  0  0  0
   20.1858    0.5577   52.1405 C   0  0  0  0  0  0
   19.6747    1.4076   51.1897 O   0  0  0  0  0  0
   18.0251   -0.3685   52.4191 O   0  0  0  0  0  0
   20.3184    1.4056   49.9130 C   0  0  0  0  0  0
   20.0111    2.7051   49.1538 C   0  0  0  0  0  0
   18.6542    3.1109   49.2747 O   0  0  0  0  0  0
   17.7270    2.2840   48.5925 C   0  0  0  0  0  0
   17.0861   -1.0256   53.2557 C   0  0  0  0  0  0
   15.6683   -0.7566   52.7297 C   0  0  0  0  0  0
   15.3259    0.5935   53.0082 O   0  0  0  0  0  0
   13.9558    0.7571   53.3710 C   0  0  0  0  0  0
   28.7452   -1.2445   53.3674 C   0  0  0  0  0  0
   29.3765   -2.2892   53.3601 C   0  0  0  0  0  0
   22.1557    1.3903   52.0086 H   0  0  0  0  0  0
   19.2848   -1.8983   54.3604 H   0  0  0  0  0  0
   23.5091   -2.3946   56.1829 H   0  0  0  0  0  0
   23.8338    1.6392   52.8463 H   0  0  0  0  0  0
   28.1177    3.3507   53.4557 H   0  0  0  0  0  0
   25.6663    3.1219   53.3596 H   0  0  0  0  0  0
   26.0767   -1.1826   53.2774 H   0  0  0  0  0  0
   29.5747    1.3421   53.4739 H   0  0  0  0  0  0
   21.4006    1.2797   49.9646 H   0  0  0  0  0  0
   19.9468    0.5462   49.3562 H   0  0  0  0  0  0
   20.6123    3.5157   49.5642 H   0  0  0  0  0  0
   20.2953    2.6098   48.1032 H   0  0  0  0  0  0
   16.7230    2.6867   48.7186 H   0  0  0  0  0  0
   17.9366    2.2491   47.5220 H   0  0  0  0  0  0
   17.7268    1.2666   48.9831 H   0  0  0  0  0  0
   17.2771   -2.1003   53.2439 H   0  0  0  0  0  0
   17.1687   -0.6786   54.2884 H   0  0  0  0  0  0
   15.6000   -0.9506   51.6567 H   0  0  0  0  0  0
   14.9849   -1.4458   53.2271 H   0  0  0  0  0  0
   13.7686    1.8082   53.5804 H   0  0  0  0  0  0
   13.2915    0.4370   52.5665 H   0  0  0  0  0  0
   13.7111    0.1924   54.2748 H   0  0  0  0  0  0
   29.8848   -3.2283   53.3636 H   0  0  0  0  0  0
  1  4  2  0  0  0
  1 17  1  0  0  0
  1 30  1  0  0  0
  2  3  1  0  0  0
  2 17  2  0  0  0
  2 19  1  0  0  0
  3  5  2  0  0  0
  3 31  1  0  0  0
  4  5  1  0  0  0
  4  6  1  0  0  0
  5  9  1  0  0  0
  6  8  2  0  0  0
  6 10  1  0  0  0
  7  8  1  0  0  0
  7  9  2  0  0  0
  7 32  1  0  0  0
 10 11  1  0  0  0
 10 33  1  0  0  0
 11 13  2  0  0  0
 11 14  1  0  0  0
 12 13  1  0  0  0
 12 15  2  0  0  0
 12 34  1  0  0  0
 13 35  1  0  0  0
 14 16  2  0  0  0
 14 36  1  0  0  0
 15 16  1  0  0  0
 15 37  1  0  0  0
 16 28  1  0  0  0
 17 18  1  0  0  0
 18 20  1  0  0  0
 19 24  1  0  0  0
 20 21  1  0  0  0
 20 38  1  0  0  0
 20 39  1  0  0  0
 21 22  1  0  0  0
 21 40  1  0  0  0
 21 41  1  0  0  0
 22 23  1  0  0  0
 23 42  1  0  0  0
 23 43  1  0  0  0
 23 44  1  0  0  0
 24 25  1  0  0  0
 24 45  1  0  0  0
 24 46  1  0  0  0
 25 26  1  0  0  0
 25 47  1  0  0  0
 25 48  1  0  0  0
 26 27  1  0  0  0
 27 49  1  0  0  0
 27 50  1  0  0  0
 27 51  1  0  0  0
 28 29  3  0  0  0
 29 52  1  0  0  0
M  END
> <s_m_entry_id>
281

> <s_m_entry_name>
pocket_pv.92

> <s_m_Source_Path>
/home/bortolaa/Project/GT/mario-master/docking/set505protein_struct_1_site_1_set505ligs_train

> <s_m_Source_File>
pocket_pv.maegz

> <i_m_Source_File_Index>
92

> <From>
www.bindingDB.org

> <BindingDB Reactant_set_id>
8645

> <Ligand InChI>
InChI=1S/C22H23N3O4/c1-4-16-6-5-7-17(12-16)25-22-18-13-20(28-10-8-26-2)21(29-11-9-27-3)14-19(18)23-15-24-22/h1,5-7,12-15H,8-11H2,2-3H3,(H,23,24,25)

> <Ligand InChI Key>
AAKJLRGGTJKAMG-UHFFFAOYSA-N

> <BindingDB MonomerID>
5446

> <BindingDB Ligand Name>
CHEMBL553::ERLOTINIB HYDROCHLORIDE::Erlotinib::Erotinib::N-(3-Ethynylphenyl)-6,7-bis(2-methoxyethoxy)-4-quinazolinamine Monohydrochloride::N-(3-ethynylphenyl)-6,7-bis(2-methoxyethoxy)quinazolin-4-amine::OSI-774::Tarceva::US10189853, erlotinib::US9409845, Table 1, Compound 22: erlotinib::US9730934, Erlotinib::cid_176870

> <Target Name Assigned by Curator or DataSource>
Epidermal growth factor receptor

> <Target Source Organism According to Curator or DataSource>
Homo sapiens

> <Ki (nM)>


> <Kd (nM)>


> <EC50 (nM)>


> <kon (M-1-s-1)>


> <koff (s-1)>


> <Curation/DataSource>
Curated from the literature by BindingDB

> <Article DOI>
10.1016/j.jmb.2007.01.004

> <PubChem AID>


> <Patent Number>


> <Authors>
Zhang, YM; Cockerill, S; Guntrip, SB; Rusnak, D; Smith, K; Vanderwall, D; Wood, E; Lackey, K

> <Institution>
GlaxoSmithKline

> <Link to Ligand in BindingDB>
http://www.bindingdb.org/bind/chemsearch/marvin/MolStructure.jsp?monomerid=5446

> <Link to Ligand-Target Pair in BindingDB>
http://www.bindingdb.org/jsp/dbsearch/PrimarySearch_ki.jsp?energyterm=kJ/mole&tag=r21&monomerid=5446&enzyme=Epidermal+growth+factor+receptor&column=ki&startPg=0&Increment=50&submit=Search

> <Ligand HET ID in PDB>
AQ4

> <PDB ID(s) for Ligand-Target Complex>
1M17

> <PubChem CID>
176870

> <PubChem SID>
8035065

> <ChEMBL ID of Ligand>
CHEMBL553

> <DrugBank ID of Ligand>
DB00530

> <KEGG ID of Ligand>


> <ZINC ID of Ligand>
ZINC01546066

> <Number of Protein Chains in Target (>
1

> <BindingDB Target Chain Sequence>
MRPSGTAGAALLALLAALCPASRALEEKKVCQGTSNKLTQLGTFEDHFLSLQRMFNNCEVVLGNLEITYVQRNYDLSFLKTIQEVAGYVLIALNTVERIPLENLQIIRGNMYYENSYALAVLSNYDANKTGLKELPMRNLQEILHGAVRFSNNPALCNVESIQWRDIVSSDFLSNMSMDFQNHLGSCQKCDPSCPNGSCWGAGEENCQKLTKIICAQQCSGRCRGKSPSDCCHNQCAAGCTGPRESDCLVCRKFRDEATCKDTCPPLMLYNPTTYQMDVNPEGKYSFGATCVKKCPRNYVVTDHGSCVRACGADSYEMEEDGVRKCKKCEGPCRKVCNGIGIGEFKDSLSINATNIKHFKNCTSISGDLHILPVAFRGDSFTHTPPLDPQELDILKTVKEITGFLLIQAWPENRTDLHAFENLEIIRGRTKQHGQFSLAVVSLNITSLGLRSLKEISDGDVIISGNKNLCYANTINWKKLFGTSGQKTKIISNRGENSCKATGQVCHALCSPEGCWGPEPRDCVSCRNVSRGRECVDKCNLLEGEPREFVENSECIQCHPECLPQAMNITCTGRGPDNCIQCAHYIDGPHCVKTCPAGVMGENNTLVWKYADAGHVCHLCHPNCTYGCTGPGLEGCPTNGPKIPSIATGMVGALLLLLVVALGIGLFMRRRHIVRKRTLRRLLQERELVEPLTPSGEAPNQALLRILKETEFKKIKVLGSGAFGTVYKGLWIPEGEKVKIPVAIKELREATSPKANKEILDEAYVMASVDNPHVCRLLGICLTSTVQLITQLMPFGCLLDYVREHKDNIGSQYLLNWCVQIAKGMNYLEDRRLVHRDLAARNVLVKTPQHVKITDFGLAKLLGAEEKEYHAEGGKVPIKWMALESILHRIYTHQSDVWSYGVTVWELMTFGSKPYDGIPASEISSILEKGERLPQPPICTIDVYMIMVKCWMIDADSRPKFRELIIEFSKMARDPQRYLVIQGDERMHLPSPTDSNFYRALMDEEDMDDVVDADEYLIPQQGFFSSPSTSRTPLLSSLSATSNNSTVACIDRNGLQSCPIKEDSFLQRYSSDPTGALTEDSIDDTFLPVPEYINQSVPKRPAGSVQNPVYHNQPLNPAPSRDPHYQDPHSTAVGNPEYLNTVQPTCVNSTFDSPAHWAQKGSHQISLDNPDYQQDFFPKEAKPNGIFKGSTAENAEYLRVAPQSSEFIGA

> <PDB ID(s) of Target Chain>
1IVO,1M14,1M17,1MOX,1XKK,1Z9I,2GS2,2GS6,2ITW,2ITX,2ITY,2J5E,2J5F,2J6M,2RF9,2RGP,3B2V,3BEL,3GOP,3POZ,3QWQ,3VJO,3W2O,3W2P,3W2Q,3W2R,3W2S,3W32,3W33,4G5J,4I23,4JQ7,4JQ8,4JR3,4JRV,4KRO,4LI5,4RJ4,4RJ5,4RJ6,4RJ7,4RJ8,4TKS,4UIP,4UV7,4WKQ,4WRG,4ZAU,5C8K,5C8M,5C8N,5CAL,5CAN,5CAO,5CAP,5CAQ,5CAS,5CAU,5CAV,5EDP,5EDQ,5EDR,5EM5,5EM6,5EM7,5EM8,5FED,5GNK,5HCX,5HCY,5HCZ,5HIB,5HIC,5UGB,5WB7,5WB8,5Y25,6S89,6S8A

> <UniProt (SwissProt) Recommended Name of Target Chain>
Epidermal growth factor receptor

> <UniProt (SwissProt) Entry Name of Target Chain>
EGFR_HUMAN

> <UniProt (SwissProt) Primary ID of Target Chain>
P00533

> <UniProt (SwissProt) Secondary ID(s) of Target Chain>
O00688,O00732,P06268,Q14225,Q68GS5,Q92795,Q9BZS2,Q9GZX1,Q9H2C9,Q9H3C9,Q9UMD7,Q9UMD8,Q9UMG5

> <UniProt (SwissProt) Alternative ID(s) of Target Chain>


> <UniProt (TrEMBL) Submitted Name of Target Chain>


> <UniProt (TrEMBL) Entry Name of Target Chain>


> <UniProt (TrEMBL) Primary ID of Target Chain>


> <UniProt (TrEMBL) Secondary ID(s) of Target Chain>


> <UniProt (TrEMBL) Alternative ID(s) of Target Chain>


> <training label>
9

> <i_lp_mmshare_version>
54117

> <s_epik_input>
W0NIM11PW0NIMl1bQ0gyXU9jKFtjSF0xKWMoT1tDSDJdW0NIMl1PW0NIM10pW2NIXWMoYzEyKW5bY0hdbmMyW05IXWMzW2NIXVtjSF1bY0hdYyhbY0hdMylDI1tDSF0=

> <s_epik_cmdline>
J2VwaWtfcHl0aG9uJywgJy1waHQnLCAnMC4xJywgJy1waCcsICc3LjQnLCAnLXRuJywgJzgnLCAnLW1hJywgJzIwMCcsICctaW1hZScsICc8aW5maWxlLm1hZT4nLCAnLW9tYWUnLCAnPG91dGZpbGUubWFlPic=

> <r_lp_tautomer_probability>
1

> <r_epik_Ionization_Penalty>
  0.0006

> <r_epik_Ionization_Penalty_Charging>
  0.0000

> <r_epik_Ionization_Penalty_Neutral>
  0.0006

> <r_epik_State_Penalty>
  0.0000

> <r_epik_Charging_Adjusted_Penalty>
0

> <i_epik_Tot_Q>
0

> <i_epik_Tot_abs_Q>
0

> <i_f3d_flags>
0

> <s_lp_Force_Field>
OPLS_2005

> <r_lp_Energy>
19.498657

> <b_lp_Chiralities_Consistent>
1

> <s_lp_Variant>
Tarceva-1

> <s_i_glide_gridfile>
struct_1_site_1

> <i_i_glide_lignum>
279

> <i_i_glide_rotatable_bonds>
11

> <r_i_docking_score>
-7.75572787518505

> <r_i_glide_ligand_efficiency>
-0.26743889224776

> <r_i_glide_ligand_efficiency_sa>
-0.821657007573324

> <r_i_glide_ligand_efficiency_ln>
-1.77586501512747

> <r_i_glide_gscore>
-7.75572787518505

> <r_i_glide_lipo>
-3.48481816305711

> <r_i_glide_hbond>
-0.32

> <r_i_glide_metal>
0

> <r_i_glide_rewards>
-1.87222760971828

> <r_i_glide_evdw>
-44.841381072998

> <r_i_glide_ecoul>
-6.48279476165771

> <r_i_glide_erotb>
1.13580616548891

> <r_i_glide_esite>
0

> <r_i_glide_emodel>
-70.9707357855537

> <r_i_glide_energy>
-51.3241758346558

> <r_i_glide_einternal>
6.25844621658325

> <i_i_glide_confnum>
189

> <i_i_glide_posenum>
202

> <r_i_glide_eff_state_penalty>
0

> <r_i_glide_rmsd>
0.520933148158696

> <IC50 (nM)>
1

> <PMID>
14684309

> <Temp C>
23

> <IUPHAR_GRAC ID of Ligand>
4920

> <r_glide_shape_similarity>
0.958688735961914

> <pH>
7.5

> <ChEBI ID of Ligand>
114785

> <s_m_subgroup_title>
505 training

> <s_m_subgroupid>
pocket_pv

> <b_m_subgroup_collapsed>
0

$$$$
BindingDB_50370938_mol_1
                    3D
 Schrodinger Suite 2021-2.
 42 44  0  0  1  0            999 V2000
   15.7199   -0.2780   52.7248 C   0  0  0  0  0  0
   17.0410   -0.8787   53.2198 C   0  0  0  0  0  0
   18.0548   -0.3931   52.3747 O   0  0  0  0  0  0
   19.3550   -0.3728   52.8149 C   0  0  0  0  0  0
   19.9013   -1.1931   53.8288 C   0  0  0  0  0  0
   21.2657   -1.1063   54.1773 C   0  0  0  0  0  0
   21.7971   -1.8895   55.1343 N   0  0  0  0  0  0
   23.0880   -1.7300   55.4097 C   0  0  0  0  0  0
   23.9273   -0.8808   54.8384 N   0  0  0  0  0  0
   23.4370   -0.0951   53.8693 C   0  0  0  0  0  0
   24.2900    0.8479   53.2776 N   0  0  0  0  0  0
   25.6861    0.9461   53.3444 C   0  0  0  0  0  0
   26.2734    2.2236   53.3739 C   0  0  0  0  0  0
   27.6698    2.3603   53.4262 C   0  0  0  0  0  0
   28.4953    1.2273   53.4414 C   0  0  0  0  0  0
   27.9211   -0.0490   53.3818 C   0  0  0  0  0  0
   26.5283   -0.1865   53.3227 C   0  0  0  0  0  0
   26.0232   -1.4277   53.1795 F   0  0  0  0  0  0
   22.0762   -0.1685   53.5028 C   0  0  0  0  0  0
   21.5302    0.6445   52.4958 C   0  0  0  0  0  0
   20.1797    0.5300   52.1355 C   0  0  0  0  0  0
   19.6073    1.3018   51.1556 O   0  0  0  0  0  0
   20.3841    1.6090   50.0124 C   0  0  0  0  0  0
   19.4684    2.3100   49.0085 C   0  0  0  0  0  0
   14.8859   -0.6172   53.3402 H   0  0  0  0  0  0
   15.7452    0.8108   52.7674 H   0  0  0  0  0  0
   15.5180   -0.5700   51.6938 H   0  0  0  0  0  0
   17.0103   -1.9680   53.1769 H   0  0  0  0  0  0
   17.2168   -0.5898   54.2547 H   0  0  0  0  0  0
   19.2775   -1.9021   54.3511 H   0  0  0  0  0  0
   23.4989   -2.3715   56.1739 H   0  0  0  0  0  0
   23.8247    1.6208   52.8340 H   0  0  0  0  0  0
   25.6611    3.1150   53.3684 H   0  0  0  0  0  0
   28.1053    3.3490   53.4597 H   0  0  0  0  0  0
   29.5701    1.3404   53.4836 H   0  0  0  0  0  0
   28.5507   -0.9267   53.3637 H   0  0  0  0  0  0
   22.1533    1.3599   51.9848 H   0  0  0  0  0  0
   20.7907    0.6963   49.5767 H   0  0  0  0  0  0
   21.2162    2.2730   50.2568 H   0  0  0  0  0  0
   19.9962    2.5203   48.0784 H   0  0  0  0  0  0
   19.0959    3.2559   49.4045 H   0  0  0  0  0  0
   18.6064    1.6889   48.7674 H   0  0  0  0  0  0
  1  2  1  0  0  0
  1 25  1  0  0  0
  1 26  1  0  0  0
  1 27  1  0  0  0
  2  3  1  0  0  0
  2 28  1  0  0  0
  2 29  1  0  0  0
  3  4  1  0  0  0
  4  5  1  0  0  0
  4 21  2  0  0  0
  5  6  2  0  0  0
  5 30  1  0  0  0
  6  7  1  0  0  0
  6 19  1  0  0  0
  7  8  2  0  0  0
  8  9  1  0  0  0
  8 31  1  0  0  0
  9 10  2  0  0  0
 10 11  1  0  0  0
 10 19  1  0  0  0
 11 12  1  0  0  0
 11 32  1  0  0  0
 12 13  2  0  0  0
 12 17  1  0  0  0
 13 14  1  0  0  0
 13 33  1  0  0  0
 14 15  2  0  0  0
 14 34  1  0  0  0
 15 16  1  0  0  0
 15 35  1  0  0  0
 16 17  2  0  0  0
 16 36  1  0  0  0
 17 18  1  0  0  0
 19 20  2  0  0  0
 20 21  1  0  0  0
 20 37  1  0  0  0
 21 22  1  0  0  0
 22 23  1  0  0  0
 23 24  1  0  0  0
 23 38  1  0  0  0
 23 39  1  0  0  0
 24 40  1  0  0  0
 24 41  1  0  0  0
 24 42  1  0  0  0
M  END
> <s_m_entry_id>
282

> <s_m_entry_name>
pocket_pv.93

> <s_m_Source_Path>
/home/bortolaa/Project/GT/mario-master/docking/set505protein_struct_1_site_1_set505ligs_train

> <s_m_Source_File>
pocket_pv.maegz

> <i_m_Source_File_Index>
93

> <From>
www.bindingDB.org

> <BindingDB Reactant_set_id>
50844839

> <Ligand InChI>
InChI=1S/C18H18FN3O2/c1-3-23-16-9-12-15(10-17(16)24-4-2)20-11-21-18(12)22-14-8-6-5-7-13(14)19/h5-11H,3-4H2,1-2H3,(H,20,21,22)

> <Ligand InChI Key>
CNWPQOSFYJXVLE-UHFFFAOYSA-N

> <BindingDB MonomerID>
50370938

> <BindingDB Ligand Name>
CHEMBL1203939

> <Target Name Assigned by Curator or DataSource>
Epidermal growth factor receptor

> <Target Source Organism According to Curator or DataSource>
Homo sapiens

> <Ki (nM)>


> <Kd (nM)>


> <EC50 (nM)>


> <kon (M-1-s-1)>


> <koff (s-1)>


> <pH>


> <Temp C>


> <Curation/DataSource>
ChEMBL

> <Article DOI>
10.1021/jm050607w

> <PubChem AID>


> <Patent Number>


> <Authors>
VanBrocklin, HF; Lim, JK; Coffing, SL; Hom, DL; Negash, K; Ono, MY; Gilmore, JL; Bryant, I; Riese, DJ

> <Institution>
Lawrence Berkeley National Laboratory

> <Link to Ligand in BindingDB>
http://www.bindingdb.org/bind/chemsearch/marvin/MolStructure.jsp?monomerid=50370938

> <Link to Ligand-Target Pair in BindingDB>
http://www.bindingdb.org/jsp/dbsearch/PrimarySearch_ki.jsp?energyterm=kJ/mole&tag=r21&monomerid=50370938&enzyme=Epidermal+growth+factor+receptor&column=ki&startPg=0&Increment=50&submit=Search

> <Ligand HET ID in PDB>


> <PDB ID(s) for Ligand-Target Complex>


> <PubChem CID>
11552309

> <PubChem SID>
160850039

> <ChEBI ID of Ligand>


> <ChEMBL ID of Ligand>
CHEMBL1203939

> <DrugBank ID of Ligand>


> <IUPHAR_GRAC ID of Ligand>


> <KEGG ID of Ligand>


> <ZINC ID of Ligand>
ZINC13676224

> <Number of Protein Chains in Target (>
1

> <BindingDB Target Chain Sequence>
MRPSGTAGAALLALLAALCPASRALEEKKVCQGTSNKLTQLGTFEDHFLSLQRMFNNCEVVLGNLEITYVQRNYDLSFLKTIQEVAGYVLIALNTVERIPLENLQIIRGNMYYENSYALAVLSNYDANKTGLKELPMRNLQEILHGAVRFSNNPALCNVESIQWRDIVSSDFLSNMSMDFQNHLGSCQKCDPSCPNGSCWGAGEENCQKLTKIICAQQCSGRCRGKSPSDCCHNQCAAGCTGPRESDCLVCRKFRDEATCKDTCPPLMLYNPTTYQMDVNPEGKYSFGATCVKKCPRNYVVTDHGSCVRACGADSYEMEEDGVRKCKKCEGPCRKVCNGIGIGEFKDSLSINATNIKHFKNCTSISGDLHILPVAFRGDSFTHTPPLDPQELDILKTVKEITGFLLIQAWPENRTDLHAFENLEIIRGRTKQHGQFSLAVVSLNITSLGLRSLKEISDGDVIISGNKNLCYANTINWKKLFGTSGQKTKIISNRGENSCKATGQVCHALCSPEGCWGPEPRDCVSCRNVSRGRECVDKCNLLEGEPREFVENSECIQCHPECLPQAMNITCTGRGPDNCIQCAHYIDGPHCVKTCPAGVMGENNTLVWKYADAGHVCHLCHPNCTYGCTGPGLEGCPTNGPKIPSIATGMVGALLLLLVVALGIGLFMRRRHIVRKRTLRRLLQERELVEPLTPSGEAPNQALLRILKETEFKKIKVLGSGAFGTVYKGLWIPEGEKVKIPVAIKELREATSPKANKEILDEAYVMASVDNPHVCRLLGICLTSTVQLITQLMPFGCLLDYVREHKDNIGSQYLLNWCVQIAKGMNYLEDRRLVHRDLAARNVLVKTPQHVKITDFGLAKLLGAEEKEYHAEGGKVPIKWMALESILHRIYTHQSDVWSYGVTVWELMTFGSKPYDGIPASEISSILEKGERLPQPPICTIDVYMIMVKCWMIDADSRPKFRELIIEFSKMARDPQRYLVIQGDERMHLPSPTDSNFYRALMDEEDMDDVVDADEYLIPQQGFFSSPSTSRTPLLSSLSATSNNSTVACIDRNGLQSCPIKEDSFLQRYSSDPTGALTEDSIDDTFLPVPEYINQSVPKRPAGSVQNPVYHNQPLNPAPSRDPHYQDPHSTAVGNPEYLNTVQPTCVNSTFDSPAHWAQKGSHQISLDNPDYQQDFFPKEAKPNGIFKGSTAENAEYLRVAPQSSEFIGA

> <PDB ID(s) of Target Chain>
1IVO,1M14,1M17,1MOX,1XKK,1Z9I,2GS2,2GS6,2ITW,2ITX,2ITY,2J5E,2J5F,2J6M,2RF9,2RGP,3B2V,3BEL,3GOP,3POZ,3QWQ,3VJO,3W2O,3W2P,3W2Q,3W2R,3W2S,3W32,3W33,4G5J,4I23,4JQ7,4JQ8,4JR3,4JRV,4KRO,4LI5,4RJ4,4RJ5,4RJ6,4RJ7,4RJ8,4TKS,4UIP,4UV7,4WKQ,4WRG,4ZAU,5C8K,5C8M,5C8N,5CAL,5CAN,5CAO,5CAP,5CAQ,5CAS,5CAU,5CAV,5EDP,5EDQ,5EDR,5EM5,5EM6,5EM7,5EM8,5FED,5GNK,5HCX,5HCY,5HCZ,5HIB,5HIC,5UGB,5WB7,5WB8,5Y25,6S89,6S8A

> <UniProt (SwissProt) Recommended Name of Target Chain>
Epidermal growth factor receptor

> <UniProt (SwissProt) Entry Name of Target Chain>
EGFR_HUMAN

> <UniProt (SwissProt) Primary ID of Target Chain>
P00533

> <UniProt (SwissProt) Secondary ID(s) of Target Chain>
O00688,O00732,P06268,Q14225,Q68GS5,Q92795,Q9BZS2,Q9GZX1,Q9H2C9,Q9H3C9,Q9UMD7,Q9UMD8,Q9UMG5

> <UniProt (SwissProt) Alternative ID(s) of Target Chain>


> <UniProt (TrEMBL) Submitted Name of Target Chain>


> <UniProt (TrEMBL) Entry Name of Target Chain>


> <UniProt (TrEMBL) Primary ID of Target Chain>


> <UniProt (TrEMBL) Secondary ID(s) of Target Chain>


> <UniProt (TrEMBL) Alternative ID(s) of Target Chain>


> <training label>
7.80134

> <i_lp_mmshare_version>
54117

> <s_epik_input>
W0NIM11bQ0gyXU9jKFtjSF0xKWMoT1tDSDJdW0NIM10pW2NIXWMoYzEyKWMobltjSF1uMilbTkhdYzNbY0hdW2NIXVtjSF1bY0hdYzNG

> <s_epik_cmdline>
J2VwaWtfcHl0aG9uJywgJy1waHQnLCAnMC4xJywgJy1waCcsICc3LjQnLCAnLXRuJywgJzgnLCAnLW1hJywgJzIwMCcsICctaW1hZScsICc8aW5maWxlLm1hZT4nLCAnLW9tYWUnLCAnPG91dGZpbGUubWFlPic=

> <r_lp_tautomer_probability>
1

> <r_epik_Ionization_Penalty>
  0.0005

> <r_epik_Ionization_Penalty_Charging>
  0.0000

> <r_epik_Ionization_Penalty_Neutral>
  0.0005

> <r_epik_State_Penalty>
  0.0000

> <r_epik_Charging_Adjusted_Penalty>
0

> <i_epik_Tot_Q>
0

> <i_epik_Tot_abs_Q>
0

> <i_f3d_flags>
0

> <s_lp_Force_Field>
OPLS_2005

> <r_lp_Energy>
19.414425

> <b_lp_Chiralities_Consistent>
1

> <s_lp_Variant>
BindingDB_50370938_mol_1-1

> <s_i_glide_gridfile>
struct_1_site_1

> <i_i_glide_lignum>
215

> <i_i_glide_rotatable_bonds>
6

> <r_i_docking_score>
-7.7427307615762

> <r_i_glide_ligand_efficiency>
-0.322613781732342

> <r_i_glide_ligand_efficiency_sa>
-0.930579175171626

> <r_i_glide_ligand_efficiency_ln>
-1.85319076200878

> <r_i_glide_gscore>
-7.7427307615762

> <r_i_glide_lipo>
-2.68014072706542

> <r_i_glide_hbond>
-0.32

> <r_i_glide_metal>
0

> <r_i_glide_rewards>
-2.73429110060942

> <r_i_glide_evdw>
-37.3147964477539

> <r_i_glide_ecoul>
-5.62055826187134

> <r_i_glide_erotb>
0.700524627767037

> <r_i_glide_esite>
0

> <r_i_glide_emodel>
-46.8437834777052

> <r_i_glide_energy>
-42.9353547096252

> <r_i_glide_einternal>
3.67551255226135

> <i_i_glide_confnum>
20

> <i_i_glide_posenum>
233

> <r_i_glide_eff_state_penalty>
0

> <IC50 (nM)>
15.8

> <PMID>
16279804

> <r_glide_shape_similarity>
0.832604825496674

> <s_m_subgroup_title>
505 training

> <s_m_subgroupid>
pocket_pv

> <b_m_subgroup_collapsed>
0

$$$$
BindingDB_3262_mol_1
                    3D
 Schrodinger Suite 2021-2.
 31 33  0  0  1  0            999 V2000
   23.4333   -0.0887   53.8594 C   0  0  0  0  0  0
   23.0899   -1.7029   55.4145 C   0  0  0  0  0  0
   22.0697   -0.1624   53.4942 C   0  0  0  0  0  0
   21.2705   -1.1049   54.1779 C   0  0  0  0  0  0
   21.5019    0.6486   52.4899 C   0  0  0  0  0  0
   20.1440    0.5212   52.1529 C   0  0  0  0  0  0
   19.3399   -0.4023   52.8377 C   0  0  0  0  0  0
   19.9082   -1.2078   53.8397 C   0  0  0  0  0  0
   23.9332   -0.8766   54.8204 N   0  0  0  0  0  0
   21.8042   -1.8786   55.1386 N   0  0  0  0  0  0
   25.6834    0.9494   53.3442 C   0  0  0  0  0  0
   27.9113   -0.0554   53.3731 C   0  0  0  0  0  0
   26.5122   -0.1883   53.3344 C   0  0  0  0  0  0
   26.2749    2.2247   53.3716 C   0  0  0  0  0  0
   27.6696    2.3574   53.4283 C   0  0  0  0  0  0
   28.4908    1.2208   53.4360 C   0  0  0  0  0  0
   24.2884    0.8519   53.2746 N   0  0  0  0  0  0
   28.7840   -1.2870   53.3134 C   0  0  0  0  0  0
   23.5041   -2.3491   56.1740 H   0  0  0  0  0  0
   22.0969    1.3705   51.9508 H   0  0  0  0  0  0
   19.7169    1.1415   51.3778 H   0  0  0  0  0  0
   18.2923   -0.4977   52.5936 H   0  0  0  0  0  0
   19.2858   -1.9091   54.3750 H   0  0  0  0  0  0
   26.0751   -1.1751   53.2788 H   0  0  0  0  0  0
   25.6664    3.1186   53.3650 H   0  0  0  0  0  0
   28.1027    3.3478   53.4650 H   0  0  0  0  0  0
   29.5660    1.3327   53.4732 H   0  0  0  0  0  0
   23.8210    1.6270   52.8365 H   0  0  0  0  0  0
   29.7938   -1.0520   52.9649 H   0  0  0  0  0  0
   28.3535   -2.0252   52.6318 H   0  0  0  0  0  0
   28.8622   -1.7414   54.2990 H   0  0  0  0  0  0
  1  3  2  0  0  0
  1  9  1  0  0  0
  1 17  1  0  0  0
  2  9  2  0  0  0
  2 10  1  0  0  0
  2 19  1  0  0  0
  3  4  1  0  0  0
  3  5  1  0  0  0
  4  8  1  0  0  0
  4 10  2  0  0  0
  5  6  2  0  0  0
  5 20  1  0  0  0
  6  7  1  0  0  0
  6 21  1  0  0  0
  7  8  2  0  0  0
  7 22  1  0  0  0
  8 23  1  0  0  0
 11 13  2  0  0  0
 11 14  1  0  0  0
 11 17  1  0  0  0
 12 13  1  0  0  0
 12 16  2  0  0  0
 12 18  1  0  0  0
 13 24  1  0  0  0
 14 15  2  0  0  0
 14 25  1  0  0  0
 15 16  1  0  0  0
 15 26  1  0  0  0
 16 27  1  0  0  0
 17 28  1  0  0  0
 18 29  1  0  0  0
 18 30  1  0  0  0
 18 31  1  0  0  0
M  END
> <s_m_entry_id>
283

> <s_m_entry_name>
pocket_pv.94

> <s_m_Source_Path>
/home/bortolaa/Project/GT/mario-master/docking/set505protein_struct_1_site_1_set505ligs_train

> <s_m_Source_File>
pocket_pv.maegz

> <i_m_Source_File_Index>
94

> <From>
www.bindingDB.org

> <BindingDB Reactant_set_id>
50210557

> <Ligand InChI>
InChI=1S/C15H13N3/c1-11-5-4-6-12(9-11)18-15-13-7-2-3-8-14(13)16-10-17-15/h2-10H,1H3,(H,16,17,18)

> <Ligand InChI Key>
AHFDWKXLJCGQHE-UHFFFAOYSA-N

> <BindingDB MonomerID>
3262

> <BindingDB Ligand Name>
4-Anilino quinazoline deriv. 13::N-(3-methylphenyl)quinazolin-4-amine

> <Target Name Assigned by Curator or DataSource>
Epidermal growth factor receptor

> <Target Source Organism According to Curator or DataSource>
Homo sapiens

> <Ki (nM)>


> <IC50 (nM)>
912

> <Kd (nM)>


> <EC50 (nM)>


> <kon (M-1-s-1)>


> <koff (s-1)>


> <pH>


> <Temp C>


> <Curation/DataSource>
ChEMBL

> <Article DOI>
10.1021/jm070654j

> <PubChem AID>


> <Patent Number>


> <Authors>
Kolb, P; Huang, D; Dey, F; Caflisch, A

> <Institution>
University of Zurich

> <Link to Ligand in BindingDB>
http://www.bindingdb.org/bind/chemsearch/marvin/MolStructure.jsp?monomerid=3262

> <Link to Ligand-Target Pair in BindingDB>
http://www.bindingdb.org/jsp/dbsearch/PrimarySearch_ki.jsp?energyterm=kJ/mole&tag=r21&monomerid=3262&enzyme=Epidermal+growth+factor+receptor&column=ki&startPg=0&Increment=50&submit=Search

> <Ligand HET ID in PDB>


> <PDB ID(s) for Ligand-Target Complex>


> <PubChem CID>
659954

> <PubChem SID>
8033004

> <ChEBI ID of Ligand>


> <ChEMBL ID of Ligand>


> <DrugBank ID of Ligand>


> <IUPHAR_GRAC ID of Ligand>


> <KEGG ID of Ligand>


> <ZINC ID of Ligand>
ZINC00104621

> <Number of Protein Chains in Target (>
1

> <BindingDB Target Chain Sequence>
MRPSGTAGAALLALLAALCPASRALEEKKVCQGTSNKLTQLGTFEDHFLSLQRMFNNCEVVLGNLEITYVQRNYDLSFLKTIQEVAGYVLIALNTVERIPLENLQIIRGNMYYENSYALAVLSNYDANKTGLKELPMRNLQEILHGAVRFSNNPALCNVESIQWRDIVSSDFLSNMSMDFQNHLGSCQKCDPSCPNGSCWGAGEENCQKLTKIICAQQCSGRCRGKSPSDCCHNQCAAGCTGPRESDCLVCRKFRDEATCKDTCPPLMLYNPTTYQMDVNPEGKYSFGATCVKKCPRNYVVTDHGSCVRACGADSYEMEEDGVRKCKKCEGPCRKVCNGIGIGEFKDSLSINATNIKHFKNCTSISGDLHILPVAFRGDSFTHTPPLDPQELDILKTVKEITGFLLIQAWPENRTDLHAFENLEIIRGRTKQHGQFSLAVVSLNITSLGLRSLKEISDGDVIISGNKNLCYANTINWKKLFGTSGQKTKIISNRGENSCKATGQVCHALCSPEGCWGPEPRDCVSCRNVSRGRECVDKCNLLEGEPREFVENSECIQCHPECLPQAMNITCTGRGPDNCIQCAHYIDGPHCVKTCPAGVMGENNTLVWKYADAGHVCHLCHPNCTYGCTGPGLEGCPTNGPKIPSIATGMVGALLLLLVVALGIGLFMRRRHIVRKRTLRRLLQERELVEPLTPSGEAPNQALLRILKETEFKKIKVLGSGAFGTVYKGLWIPEGEKVKIPVAIKELREATSPKANKEILDEAYVMASVDNPHVCRLLGICLTSTVQLITQLMPFGCLLDYVREHKDNIGSQYLLNWCVQIAKGMNYLEDRRLVHRDLAARNVLVKTPQHVKITDFGLAKLLGAEEKEYHAEGGKVPIKWMALESILHRIYTHQSDVWSYGVTVWELMTFGSKPYDGIPASEISSILEKGERLPQPPICTIDVYMIMVKCWMIDADSRPKFRELIIEFSKMARDPQRYLVIQGDERMHLPSPTDSNFYRALMDEEDMDDVVDADEYLIPQQGFFSSPSTSRTPLLSSLSATSNNSTVACIDRNGLQSCPIKEDSFLQRYSSDPTGALTEDSIDDTFLPVPEYINQSVPKRPAGSVQNPVYHNQPLNPAPSRDPHYQDPHSTAVGNPEYLNTVQPTCVNSTFDSPAHWAQKGSHQISLDNPDYQQDFFPKEAKPNGIFKGSTAENAEYLRVAPQSSEFIGA

> <PDB ID(s) of Target Chain>
1IVO,1M14,1M17,1MOX,1XKK,1Z9I,2GS2,2GS6,2ITW,2ITX,2ITY,2J5E,2J5F,2J6M,2RF9,2RGP,3B2V,3BEL,3GOP,3POZ,3QWQ,3VJO,3W2O,3W2P,3W2Q,3W2R,3W2S,3W32,3W33,4G5J,4I23,4JQ7,4JQ8,4JR3,4JRV,4KRO,4LI5,4RJ4,4RJ5,4RJ6,4RJ7,4RJ8,4TKS,4UIP,4UV7,4WKQ,4WRG,4ZAU,5C8K,5C8M,5C8N,5CAL,5CAN,5CAO,5CAP,5CAQ,5CAS,5CAU,5CAV,5EDP,5EDQ,5EDR,5EM5,5EM6,5EM7,5EM8,5FED,5GNK,5HCX,5HCY,5HCZ,5HIB,5HIC,5UGB,5WB7,5WB8,5Y25,6S89,6S8A

> <UniProt (SwissProt) Recommended Name of Target Chain>
Epidermal growth factor receptor

> <UniProt (SwissProt) Entry Name of Target Chain>
EGFR_HUMAN

> <UniProt (SwissProt) Primary ID of Target Chain>
P00533

> <UniProt (SwissProt) Secondary ID(s) of Target Chain>
O00688,O00732,P06268,Q14225,Q68GS5,Q92795,Q9BZS2,Q9GZX1,Q9H2C9,Q9H3C9,Q9UMD7,Q9UMD8,Q9UMG5

> <UniProt (SwissProt) Alternative ID(s) of Target Chain>


> <UniProt (TrEMBL) Submitted Name of Target Chain>


> <UniProt (TrEMBL) Entry Name of Target Chain>


> <UniProt (TrEMBL) Primary ID of Target Chain>


> <UniProt (TrEMBL) Secondary ID(s) of Target Chain>


> <UniProt (TrEMBL) Alternative ID(s) of Target Chain>


> <training label>
6.04001

> <i_lp_mmshare_version>
54117

> <s_epik_input>
W2NIXTFbY0hdW2NIXWMoW0NIM10pW2NIXWMxW05IXWMybltjSF1uYyhjMjMpW2NIXVtjSF1bY0hdW2NIXTM=

> <s_epik_cmdline>
J2VwaWtfcHl0aG9uJywgJy1waHQnLCAnMC4xJywgJy1waCcsICc3LjQnLCAnLXRuJywgJzgnLCAnLW1hJywgJzIwMCcsICctaW1hZScsICc8aW5maWxlLm1hZT4nLCAnLW9tYWUnLCAnPG91dGZpbGUubWFlPic=

> <r_lp_tautomer_probability>
1

> <r_epik_Ionization_Penalty>
  0.0003

> <r_epik_Ionization_Penalty_Charging>
  0.0000

> <r_epik_Ionization_Penalty_Neutral>
  0.0003

> <r_epik_State_Penalty>
  0.0000

> <r_epik_Charging_Adjusted_Penalty>
0

> <i_epik_Tot_Q>
0

> <i_epik_Tot_abs_Q>
0

> <i_f3d_flags>
0

> <s_lp_Force_Field>
OPLS_2005

> <r_lp_Energy>
14.28943

> <b_lp_Chiralities_Consistent>
1

> <s_lp_Variant>
BindingDB_3262_mol_1-1

> <s_i_glide_gridfile>
struct_1_site_1

> <i_i_glide_lignum>
70

> <i_i_glide_rotatable_bonds>
2

> <r_i_docking_score>
-7.73135119477037

> <r_i_glide_ligand_efficiency>
-0.429519510820576

> <r_i_glide_ligand_efficiency_sa>
-1.12565956054331

> <r_i_glide_ligand_efficiency_ln>
-1.98730395856856

> <r_i_glide_gscore>
-7.73135119477037

> <r_i_glide_lipo>
-2.63270094033198

> <r_i_glide_hbond>
-0.32

> <r_i_glide_metal>
0

> <r_i_glide_rewards>
-2.98420729723645

> <r_i_glide_evdw>
-32.0553131103516

> <r_i_glide_ecoul>
-5.41880035400391

> <r_i_glide_erotb>
0.621142751416231

> <r_i_glide_esite>
0

> <r_i_glide_emodel>
-24.985172258045

> <r_i_glide_energy>
-37.4741134643555

> <r_i_glide_einternal>
2.86701631546021

> <i_i_glide_confnum>
2

> <i_i_glide_posenum>
174

> <r_i_glide_eff_state_penalty>
0

> <PMID>
18271520

> <r_glide_shape_similarity>
0.699807047843933

> <s_m_subgroup_title>
505 training

> <s_m_subgroupid>
pocket_pv

> <b_m_subgroup_collapsed>
0

$$$$
BindingDB_50391084_mol_1
                    3D
 Schrodinger Suite 2021-2.
 48 51  0  0  1  0            999 V2000
   15.8172   -0.1972   52.3483 C   0  0  0  0  0  0
   17.0485   -0.8899   52.9624 C   0  0  0  0  0  0
   18.0944   -0.0729   52.5279 O   0  0  0  0  0  0
   19.3949   -0.2678   52.8723 C   0  0  0  0  0  0
   20.2388    0.6207   52.2118 C   0  0  0  0  0  0
   19.6832    1.5437   51.3818 O   0  0  0  0  0  0
   20.2682    1.7203   50.1143 C   0  0  0  0  0  0
   19.0960    1.5335   49.1670 C   0  0  0  0  0  0
   18.1296    2.5497   49.3797 O   0  0  0  0  0  0
   16.7879    2.0699   49.4596 C   0  0  0  0  0  0
   16.3575    1.6348   50.8876 C   0  0  0  0  0  0
   16.1112    0.2278   51.0116 O   0  0  0  0  0  0
   19.9068   -1.1658   53.8314 C   0  0  0  0  0  0
   21.5883    0.6619   52.5130 C   0  0  0  0  0  0
   22.0995   -0.1772   53.5053 C   0  0  0  0  0  0
   21.2738   -1.1100   54.1773 C   0  0  0  0  0  0
   21.7969   -1.8953   55.1377 N   0  0  0  0  0  0
   23.0900   -1.7414   55.4117 C   0  0  0  0  0  0
   23.9410   -0.9066   54.8288 N   0  0  0  0  0  0
   23.4515   -0.1048   53.8726 C   0  0  0  0  0  0
   24.2959    0.8448   53.2828 N   0  0  0  0  0  0
   25.6875    0.9486   53.3448 C   0  0  0  0  0  0
   26.5176   -0.1886   53.3330 C   0  0  0  0  0  0
   27.9139   -0.0505   53.3826 C   0  0  0  0  0  0
   28.4915    1.2249   53.4363 C   0  0  0  0  0  0
   27.6710    2.3618   53.4266 C   0  0  0  0  0  0
   26.2740    2.2265   53.3719 C   0  0  0  0  0  0
   29.0220   -1.5896   53.3732 Br  0  0  0  0  0  0
   15.5011    0.6408   52.9734 H   0  0  0  0  0  0
   14.9801   -0.8956   52.3297 H   0  0  0  0  0  0
   16.9859   -0.9423   54.0525 H   0  0  0  0  0  0
   17.1758   -1.8999   52.5749 H   0  0  0  0  0  0
   20.6989    2.7205   50.0356 H   0  0  0  0  0  0
   21.0484    0.9876   49.8902 H   0  0  0  0  0  0
   19.4400    1.5793   48.1352 H   0  0  0  0  0  0
   18.6783    0.5363   49.3313 H   0  0  0  0  0  0
   16.1583    2.9087   49.1647 H   0  0  0  0  0  0
   16.5973    1.2858   48.7236 H   0  0  0  0  0  0
   17.0875    1.9832   51.6183 H   0  0  0  0  0  0
   15.4276    2.1504   51.1374 H   0  0  0  0  0  0
   19.2534   -1.8423   54.3617 H   0  0  0  0  0  0
   22.1991    1.3925   52.0085 H   0  0  0  0  0  0
   23.5042   -2.3870   56.1720 H   0  0  0  0  0  0
   23.8228    1.6171   52.8452 H   0  0  0  0  0  0
   26.0891   -1.1795   53.2786 H   0  0  0  0  0  0
   29.5659    1.3324   53.4692 H   0  0  0  0  0  0
   28.1098    3.3495   53.4580 H   0  0  0  0  0  0
   25.6634    3.1194   53.3569 H   0  0  0  0  0  0
  1  2  1  0  0  0
  1 12  1  0  0  0
  1 29  1  0  0  0
  1 30  1  0  0  0
  2  3  1  0  0  0
  2 31  1  0  0  0
  2 32  1  0  0  0
  3  4  1  0  0  0
  4  5  2  0  0  0
  4 13  1  0  0  0
  5  6  1  0  0  0
  5 14  1  0  0  0
  6  7  1  0  0  0
  7  8  1  0  0  0
  7 33  1  0  0  0
  7 34  1  0  0  0
  8  9  1  0  0  0
  8 35  1  0  0  0
  8 36  1  0  0  0
  9 10  1  0  0  0
 10 11  1  0  0  0
 10 37  1  0  0  0
 10 38  1  0  0  0
 11 12  1  0  0  0
 11 39  1  0  0  0
 11 40  1  0  0  0
 13 16  2  0  0  0
 13 41  1  0  0  0
 14 15  2  0  0  0
 14 42  1  0  0  0
 15 16  1  0  0  0
 15 20  1  0  0  0
 16 17  1  0  0  0
 17 18  2  0  0  0
 18 19  1  0  0  0
 18 43  1  0  0  0
 19 20  2  0  0  0
 20 21  1  0  0  0
 21 22  1  0  0  0
 21 44  1  0  0  0
 22 23  2  0  0  0
 22 27  1  0  0  0
 23 24  1  0  0  0
 23 45  1  0  0  0
 24 25  2  0  0  0
 24 28  1  0  0  0
 25 26  1  0  0  0
 25 46  1  0  0  0
 26 27  2  0  0  0
 26 47  1  0  0  0
 27 48  1  0  0  0
M  END
> <s_m_entry_id>
284

> <s_m_entry_name>
pocket_pv.95

> <s_m_Source_Path>
/home/bortolaa/Project/GT/mario-master/docking/set505protein_struct_1_site_1_set505ligs_train

> <s_m_Source_File>
pocket_pv.maegz

> <i_m_Source_File_Index>
95

> <From>
www.bindingDB.org

> <BindingDB Reactant_set_id>
50952875

> <Ligand InChI>
InChI=1S/C20H20BrN3O4/c21-14-2-1-3-15(10-14)24-20-16-11-18-19(12-17(16)22-13-23-20)28-9-7-26-5-4-25-6-8-27-18/h1-3,10-13H,4-9H2,(H,22,23,24)

> <Ligand InChI Key>
XOVKSCAELXYJEF-UHFFFAOYSA-N

> <BindingDB MonomerID>
50391084

> <BindingDB Ligand Name>
CHEMBL2087355

> <Target Name Assigned by Curator or DataSource>
Epidermal growth factor receptor

> <Target Source Organism According to Curator or DataSource>
Homo sapiens

> <Ki (nM)>


> <Kd (nM)>


> <EC50 (nM)>


> <kon (M-1-s-1)>


> <koff (s-1)>


> <pH>


> <Temp C>


> <Curation/DataSource>
ChEMBL

> <Article DOI>
10.1016/j.bmcl.2012.06.067

> <PubChem AID>


> <Patent Number>


> <Authors>
Hu, S; Xie, G; Zhang, DX; Davis, C; Long, W; Hu, Y; Wang, F; Kang, X; Tan, F; Ding, L; Wang, Y

> <Institution>
Zhejiang Betapharma

> <Link to Ligand in BindingDB>
http://www.bindingdb.org/bind/chemsearch/marvin/MolStructure.jsp?monomerid=50391084

> <Link to Ligand-Target Pair in BindingDB>
http://www.bindingdb.org/jsp/dbsearch/PrimarySearch_ki.jsp?energyterm=kJ/mole&tag=r21&monomerid=50391084&enzyme=Epidermal+growth+factor+receptor&column=ki&startPg=0&Increment=50&submit=Search

> <Ligand HET ID in PDB>


> <PDB ID(s) for Ligand-Target Complex>


> <PubChem CID>
10216910

> <PubChem SID>
160870167

> <ChEBI ID of Ligand>


> <ChEMBL ID of Ligand>
CHEMBL2087355

> <DrugBank ID of Ligand>


> <IUPHAR_GRAC ID of Ligand>


> <KEGG ID of Ligand>


> <ZINC ID of Ligand>
ZINC38389673

> <Number of Protein Chains in Target (>
1

> <BindingDB Target Chain Sequence>
MRPSGTAGAALLALLAALCPASRALEEKKVCQGTSNKLTQLGTFEDHFLSLQRMFNNCEVVLGNLEITYVQRNYDLSFLKTIQEVAGYVLIALNTVERIPLENLQIIRGNMYYENSYALAVLSNYDANKTGLKELPMRNLQEILHGAVRFSNNPALCNVESIQWRDIVSSDFLSNMSMDFQNHLGSCQKCDPSCPNGSCWGAGEENCQKLTKIICAQQCSGRCRGKSPSDCCHNQCAAGCTGPRESDCLVCRKFRDEATCKDTCPPLMLYNPTTYQMDVNPEGKYSFGATCVKKCPRNYVVTDHGSCVRACGADSYEMEEDGVRKCKKCEGPCRKVCNGIGIGEFKDSLSINATNIKHFKNCTSISGDLHILPVAFRGDSFTHTPPLDPQELDILKTVKEITGFLLIQAWPENRTDLHAFENLEIIRGRTKQHGQFSLAVVSLNITSLGLRSLKEISDGDVIISGNKNLCYANTINWKKLFGTSGQKTKIISNRGENSCKATGQVCHALCSPEGCWGPEPRDCVSCRNVSRGRECVDKCNLLEGEPREFVENSECIQCHPECLPQAMNITCTGRGPDNCIQCAHYIDGPHCVKTCPAGVMGENNTLVWKYADAGHVCHLCHPNCTYGCTGPGLEGCPTNGPKIPSIATGMVGALLLLLVVALGIGLFMRRRHIVRKRTLRRLLQERELVEPLTPSGEAPNQALLRILKETEFKKIKVLGSGAFGTVYKGLWIPEGEKVKIPVAIKELREATSPKANKEILDEAYVMASVDNPHVCRLLGICLTSTVQLITQLMPFGCLLDYVREHKDNIGSQYLLNWCVQIAKGMNYLEDRRLVHRDLAARNVLVKTPQHVKITDFGLAKLLGAEEKEYHAEGGKVPIKWMALESILHRIYTHQSDVWSYGVTVWELMTFGSKPYDGIPASEISSILEKGERLPQPPICTIDVYMIMVKCWMIDADSRPKFRELIIEFSKMARDPQRYLVIQGDERMHLPSPTDSNFYRALMDEEDMDDVVDADEYLIPQQGFFSSPSTSRTPLLSSLSATSNNSTVACIDRNGLQSCPIKEDSFLQRYSSDPTGALTEDSIDDTFLPVPEYINQSVPKRPAGSVQNPVYHNQPLNPAPSRDPHYQDPHSTAVGNPEYLNTVQPTCVNSTFDSPAHWAQKGSHQISLDNPDYQQDFFPKEAKPNGIFKGSTAENAEYLRVAPQSSEFIGA

> <PDB ID(s) of Target Chain>
1IVO,1M14,1M17,1MOX,1XKK,1Z9I,2GS2,2GS6,2ITW,2ITX,2ITY,2J5E,2J5F,2J6M,2RF9,2RGP,3B2V,3BEL,3GOP,3POZ,3QWQ,3VJO,3W2O,3W2P,3W2Q,3W2R,3W2S,3W32,3W33,4G5J,4I23,4JQ7,4JQ8,4JR3,4JRV,4KRO,4LI5,4RJ4,4RJ5,4RJ6,4RJ7,4RJ8,4TKS,4UIP,4UV7,4WKQ,4WRG,4ZAU,5C8K,5C8M,5C8N,5CAL,5CAN,5CAO,5CAP,5CAQ,5CAS,5CAU,5CAV,5EDP,5EDQ,5EDR,5EM5,5EM6,5EM7,5EM8,5FED,5GNK,5HCX,5HCY,5HCZ,5HIB,5HIC,5UGB,5WB7,5WB8,5Y25,6S89,6S8A

> <UniProt (SwissProt) Recommended Name of Target Chain>
Epidermal growth factor receptor

> <UniProt (SwissProt) Entry Name of Target Chain>
EGFR_HUMAN

> <UniProt (SwissProt) Primary ID of Target Chain>
P00533

> <UniProt (SwissProt) Secondary ID(s) of Target Chain>
O00688,O00732,P06268,Q14225,Q68GS5,Q92795,Q9BZS2,Q9GZX1,Q9H2C9,Q9H3C9,Q9UMD7,Q9UMD8,Q9UMG5

> <UniProt (SwissProt) Alternative ID(s) of Target Chain>


> <UniProt (TrEMBL) Submitted Name of Target Chain>


> <UniProt (TrEMBL) Entry Name of Target Chain>


> <UniProt (TrEMBL) Primary ID of Target Chain>


> <UniProt (TrEMBL) Secondary ID(s) of Target Chain>


> <UniProt (TrEMBL) Alternative ID(s) of Target Chain>


> <training label>
7.30103

> <i_lp_mmshare_version>
54117

> <s_epik_input>
TzFbQ0gyXVtDSDJdT1tDSDJdW0NIMl1PW0NIMl1bQ0gyXU9jKGMxMilbY0hdYzNjKFtjSF0yKW5bY0hdbmMzW05IXWM0W2NIXWMoQnIpW2NIXVtjSF1bY0hdNA==

> <s_epik_cmdline>
J2VwaWtfcHl0aG9uJywgJy1waHQnLCAnMC4xJywgJy1waCcsICc3LjQnLCAnLXRuJywgJzgnLCAnLW1hJywgJzIwMCcsICctaW1hZScsICc8aW5maWxlLm1hZT4nLCAnLW9tYWUnLCAnPG91dGZpbGUubWFlPic=

> <r_lp_tautomer_probability>
1

> <r_epik_Ionization_Penalty>
  0.0005

> <r_epik_Ionization_Penalty_Charging>
  0.0000

> <r_epik_Ionization_Penalty_Neutral>
  0.0005

> <r_epik_State_Penalty>
  0.0000

> <r_epik_Charging_Adjusted_Penalty>
0

> <i_epik_Tot_Q>
0

> <i_epik_Tot_abs_Q>
0

> <i_f3d_flags>
0

> <s_lp_Force_Field>
OPLS_2005

> <r_lp_Energy>
32.179604

> <b_lp_Chiralities_Consistent>
1

> <s_lp_Variant>
BindingDB_50391084_mol_1-1

> <s_i_glide_gridfile>
struct_1_site_1

> <i_i_glide_lignum>
189

> <i_i_glide_rotatable_bonds>
2

> <r_i_docking_score>
-7.7240024355424

> <r_i_glide_ligand_efficiency>
-0.2758572298408

> <r_i_glide_ligand_efficiency_sa>
-0.83766502101632

> <r_i_glide_ligand_efficiency_ln>
-1.78292654868919

> <r_i_glide_gscore>
-7.7240024355424

> <r_i_glide_lipo>
-2.98550559959172

> <r_i_glide_hbond>
-0.32

> <r_i_glide_metal>
0

> <r_i_glide_rewards>
-1.52080569834304

> <r_i_glide_evdw>
-44.5645027160645

> <r_i_glide_ecoul>
-5.80295753479004

> <r_i_glide_erotb>
0.200977628414086

> <r_i_glide_esite>
0

> <r_i_glide_emodel>
-64.717807644559

> <r_i_glide_energy>
-50.3674602508545

> <r_i_glide_einternal>
0.502495408058167

> <i_i_glide_confnum>
265

> <i_i_glide_posenum>
84

> <r_i_glide_eff_state_penalty>
0

> <IC50 (nM)>
50

> <PMID>
22959248

> <r_glide_shape_similarity>
0.90358304977417

> <s_m_subgroup_title>
505 training

> <s_m_subgroupid>
pocket_pv

> <b_m_subgroup_collapsed>
0

$$$$
BindingDB_3530_mol_1
                    3D
 Schrodinger Suite 2021-2.
 36 38  0  0  1  0            999 V2000
   21.5177    0.6391   52.4938 C   0  0  0  0  0  0
   19.3425   -0.3874   52.8377 C   0  0  0  0  0  0
   19.9096   -1.2066   53.8400 C   0  0  0  0  0  0
   22.0747   -0.1680   53.5019 C   0  0  0  0  0  0
   21.2716   -1.1097   54.1791 C   0  0  0  0  0  0
   23.4363   -0.0939   53.8660 C   0  0  0  0  0  0
   23.0929   -1.7276   55.4081 C   0  0  0  0  0  0
   23.9351   -0.8833   54.8280 N   0  0  0  0  0  0
   21.8030   -1.8910   55.1350 N   0  0  0  0  0  0
   24.2882    0.8496   53.2771 N   0  0  0  0  0  0
   23.8261    1.6241   52.8336 H   0  0  0  0  0  0
   25.6834    0.9479   53.3438 C   0  0  0  0  0  0
   27.9112   -0.0548   53.3845 C   0  0  0  0  0  0
   26.5149   -0.1885   53.3331 C   0  0  0  0  0  0
   26.2729    2.2235   53.3665 C   0  0  0  0  0  0
   27.6695    2.3563   53.4207 C   0  0  0  0  0  0
   28.4907    1.2205   53.4385 C   0  0  0  0  0  0
   20.1598    0.5171   52.1428 C   0  0  0  0  0  0
   19.5775    1.2527   51.1417 O   0  0  0  0  0  0
   20.3973    1.6407   50.0535 C   0  0  0  0  0  0
   18.0238   -0.4069   52.4577 O   0  0  0  0  0  0
   17.1097   -1.1456   53.2347 C   0  0  0  0  0  0
   22.1388    1.3433   51.9665 H   0  0  0  0  0  0
   19.3057   -1.9171   54.3808 H   0  0  0  0  0  0
   23.5043   -2.3710   56.1737 H   0  0  0  0  0  0
   28.5388   -0.9343   53.3829 H   0  0  0  0  0  0
   26.0863   -1.1772   53.2757 H   0  0  0  0  0  0
   25.6633    3.1158   53.3547 H   0  0  0  0  0  0
   28.1067    3.3440   53.4470 H   0  0  0  0  0  0
   29.5659    1.3334   53.4825 H   0  0  0  0  0  0
   19.7629    1.9616   49.2261 H   0  0  0  0  0  0
   21.0144    0.8124   49.6997 H   0  0  0  0  0  0
   21.0423    2.4799   50.3237 H   0  0  0  0  0  0
   16.0990   -0.9511   52.8772 H   0  0  0  0  0  0
   17.2925   -2.2187   53.1491 H   0  0  0  0  0  0
   17.1462   -0.8652   54.2890 H   0  0  0  0  0  0
  1  4  2  0  0  0
  1 18  1  0  0  0
  1 23  1  0  0  0
  2  3  1  0  0  0
  2 18  2  0  0  0
  2 21  1  0  0  0
  3  5  2  0  0  0
  3 24  1  0  0  0
  4  5  1  0  0  0
  4  6  1  0  0  0
  5  9  1  0  0  0
  6  8  2  0  0  0
  6 10  1  0  0  0
  7  8  1  0  0  0
  7  9  2  0  0  0
  7 25  1  0  0  0
 10 11  1  0  0  0
 10 12  1  0  0  0
 12 14  2  0  0  0
 12 15  1  0  0  0
 13 14  1  0  0  0
 13 17  2  0  0  0
 13 26  1  0  0  0
 14 27  1  0  0  0
 15 16  2  0  0  0
 15 28  1  0  0  0
 16 17  1  0  0  0
 16 29  1  0  0  0
 17 30  1  0  0  0
 18 19  1  0  0  0
 19 20  1  0  0  0
 20 31  1  0  0  0
 20 32  1  0  0  0
 20 33  1  0  0  0
 21 22  1  0  0  0
 22 34  1  0  0  0
 22 35  1  0  0  0
 22 36  1  0  0  0
M  END
> <s_m_entry_id>
285

> <s_m_entry_name>
pocket_pv.96

> <s_m_Source_Path>
/home/bortolaa/Project/GT/mario-master/docking/set505protein_struct_1_site_1_set505ligs_train

> <s_m_Source_File>
pocket_pv.maegz

> <i_m_Source_File_Index>
96

> <From>
www.bindingDB.org

> <BindingDB Reactant_set_id>
6576

> <Ligand InChI>
InChI=1S/C16H15N3O2/c1-20-14-8-12-13(9-15(14)21-2)17-10-18-16(12)19-11-6-4-3-5-7-11/h3-10H,1-2H3,(H,17,18,19)

> <Ligand InChI Key>
MJKCGAHOCZLYDG-UHFFFAOYSA-N

> <BindingDB MonomerID>
3530

> <BindingDB Ligand Name>
6,7-dimethoxy-N-phenylquinazolin-4-amine::CHEMBL542484::CHEMBL94191::PD153035 Analog 29

> <Target Name Assigned by Curator or DataSource>
Epidermal growth factor receptor

> <Target Source Organism According to Curator or DataSource>
Homo sapiens

> <Ki (nM)>


> <IC50 (nM)>
5100

> <Kd (nM)>


> <EC50 (nM)>


> <kon (M-1-s-1)>


> <koff (s-1)>


> <Curation/DataSource>
Curated from the literature by BindingDB

> <Article DOI>
10.1021/jm050101d

> <PubChem AID>


> <Patent Number>


> <Authors>
Gazit, A; Chen, J; App, H; McMahon, G; Hirth, P; Chen, I; Levitzki, A

> <Institution>
Hebrew University of Jerusalem

> <Link to Ligand in BindingDB>
http://www.bindingdb.org/bind/chemsearch/marvin/MolStructure.jsp?monomerid=3530

> <Link to Ligand-Target Pair in BindingDB>
http://www.bindingdb.org/jsp/dbsearch/PrimarySearch_ki.jsp?energyterm=kJ/mole&tag=r21&monomerid=3530&enzyme=Epidermal+growth+factor+receptor&column=ki&startPg=0&Increment=50&submit=Search

> <Ligand HET ID in PDB>


> <PDB ID(s) for Ligand-Target Complex>


> <PubChem CID>
3798

> <PubChem SID>
8033255

> <ChEBI ID of Ligand>


> <ChEMBL ID of Ligand>
CHEMBL94191
CHEMBL542484

> <DrugBank ID of Ligand>


> <IUPHAR_GRAC ID of Ligand>


> <KEGG ID of Ligand>


> <ZINC ID of Ligand>
ZINC00116934

> <Number of Protein Chains in Target (>
1

> <BindingDB Target Chain Sequence>
MRPSGTAGAALLALLAALCPASRALEEKKVCQGTSNKLTQLGTFEDHFLSLQRMFNNCEVVLGNLEITYVQRNYDLSFLKTIQEVAGYVLIALNTVERIPLENLQIIRGNMYYENSYALAVLSNYDANKTGLKELPMRNLQEILHGAVRFSNNPALCNVESIQWRDIVSSDFLSNMSMDFQNHLGSCQKCDPSCPNGSCWGAGEENCQKLTKIICAQQCSGRCRGKSPSDCCHNQCAAGCTGPRESDCLVCRKFRDEATCKDTCPPLMLYNPTTYQMDVNPEGKYSFGATCVKKCPRNYVVTDHGSCVRACGADSYEMEEDGVRKCKKCEGPCRKVCNGIGIGEFKDSLSINATNIKHFKNCTSISGDLHILPVAFRGDSFTHTPPLDPQELDILKTVKEITGFLLIQAWPENRTDLHAFENLEIIRGRTKQHGQFSLAVVSLNITSLGLRSLKEISDGDVIISGNKNLCYANTINWKKLFGTSGQKTKIISNRGENSCKATGQVCHALCSPEGCWGPEPRDCVSCRNVSRGRECVDKCNLLEGEPREFVENSECIQCHPECLPQAMNITCTGRGPDNCIQCAHYIDGPHCVKTCPAGVMGENNTLVWKYADAGHVCHLCHPNCTYGCTGPGLEGCPTNGPKIPSIATGMVGALLLLLVVALGIGLFMRRRHIVRKRTLRRLLQERELVEPLTPSGEAPNQALLRILKETEFKKIKVLGSGAFGTVYKGLWIPEGEKVKIPVAIKELREATSPKANKEILDEAYVMASVDNPHVCRLLGICLTSTVQLITQLMPFGCLLDYVREHKDNIGSQYLLNWCVQIAKGMNYLEDRRLVHRDLAARNVLVKTPQHVKITDFGLAKLLGAEEKEYHAEGGKVPIKWMALESILHRIYTHQSDVWSYGVTVWELMTFGSKPYDGIPASEISSILEKGERLPQPPICTIDVYMIMVKCWMIDADSRPKFRELIIEFSKMARDPQRYLVIQGDERMHLPSPTDSNFYRALMDEEDMDDVVDADEYLIPQQGFFSSPSTSRTPLLSSLSATSNNSTVACIDRNGLQSCPIKEDSFLQRYSSDPTGALTEDSIDDTFLPVPEYINQSVPKRPAGSVQNPVYHNQPLNPAPSRDPHYQDPHSTAVGNPEYLNTVQPTCVNSTFDSPAHWAQKGSHQISLDNPDYQQDFFPKEAKPNGIFKGSTAENAEYLRVAPQSSEFIGA

> <PDB ID(s) of Target Chain>
1IVO,1M14,1M17,1MOX,1XKK,1Z9I,2GS2,2GS6,2ITW,2ITX,2ITY,2J5E,2J5F,2J6M,2RF9,2RGP,3B2V,3BEL,3GOP,3POZ,3QWQ,3VJO,3W2O,3W2P,3W2Q,3W2R,3W2S,3W32,3W33,4G5J,4I23,4JQ7,4JQ8,4JR3,4JRV,4KRO,4LI5,4RJ4,4RJ5,4RJ6,4RJ7,4RJ8,4TKS,4UIP,4UV7,4WKQ,4WRG,4ZAU,5C8K,5C8M,5C8N,5CAL,5CAN,5CAO,5CAP,5CAQ,5CAS,5CAU,5CAV,5EDP,5EDQ,5EDR,5EM5,5EM6,5EM7,5EM8,5FED,5GNK,5HCX,5HCY,5HCZ,5HIB,5HIC,5UGB,5WB7,5WB8,5Y25,6S89,6S8A

> <UniProt (SwissProt) Recommended Name of Target Chain>
Epidermal growth factor receptor

> <UniProt (SwissProt) Entry Name of Target Chain>
EGFR_HUMAN

> <UniProt (SwissProt) Primary ID of Target Chain>
P00533

> <UniProt (SwissProt) Secondary ID(s) of Target Chain>
O00688,O00732,P06268,Q14225,Q68GS5,Q92795,Q9BZS2,Q9GZX1,Q9H2C9,Q9H3C9,Q9UMD7,Q9UMD8,Q9UMG5

> <UniProt (SwissProt) Alternative ID(s) of Target Chain>


> <UniProt (TrEMBL) Submitted Name of Target Chain>


> <UniProt (TrEMBL) Entry Name of Target Chain>


> <UniProt (TrEMBL) Primary ID of Target Chain>


> <UniProt (TrEMBL) Secondary ID(s) of Target Chain>


> <UniProt (TrEMBL) Alternative ID(s) of Target Chain>


> <training label>
5.29243

> <i_lp_mmshare_version>
54117

> <s_epik_input>
W0NIM11PYyhbY0hdMSljKE9bQ0gzXSlbY0hdYyhjMTIpbltjSF1uYzJbTkhdYzNbY0hdW2NIXVtjSF1bY0hdW2NIXTM=

> <s_epik_cmdline>
J2VwaWtfcHl0aG9uJywgJy1waHQnLCAnMC4xJywgJy1waCcsICc3LjQnLCAnLXRuJywgJzgnLCAnLW1hJywgJzIwMCcsICctaW1hZScsICc8aW5maWxlLm1hZT4nLCAnLW9tYWUnLCAnPG91dGZpbGUubWFlPic=

> <r_lp_tautomer_probability>
1

> <r_epik_Ionization_Penalty>
  0.0006

> <r_epik_Ionization_Penalty_Charging>
  0.0000

> <r_epik_Ionization_Penalty_Neutral>
  0.0006

> <r_epik_State_Penalty>
  0.0000

> <r_epik_Charging_Adjusted_Penalty>
0

> <i_epik_Tot_Q>
0

> <i_epik_Tot_abs_Q>
0

> <i_f3d_flags>
0

> <s_lp_Force_Field>
OPLS_2005

> <r_lp_Energy>
20.217857

> <b_lp_Chiralities_Consistent>
1

> <s_lp_Variant>
BindingDB_3530_mol_1-1

> <s_i_glide_gridfile>
struct_1_site_1

> <i_i_glide_lignum>
37

> <i_i_glide_rotatable_bonds>
4

> <r_i_docking_score>
-7.7018076591013

> <r_i_glide_ligand_efficiency>
-0.36675274567149

> <r_i_glide_ligand_efficiency_sa>
-1.01184301576037

> <r_i_glide_ligand_efficiency_ln>
-1.90425638074504

> <r_i_glide_gscore>
-7.7018076591013

> <r_i_glide_lipo>
-2.58758825957915

> <r_i_glide_hbond>
-0.32

> <r_i_glide_metal>
0

> <r_i_glide_rewards>
-2.65761753118305

> <r_i_glide_evdw>
-34.9001197814941

> <r_i_glide_ecoul>
-5.65603399276733

> <r_i_glide_erotb>
0.456809219650713

> <r_i_glide_esite>
0

> <r_i_glide_emodel>
-36.5237482879968

> <r_i_glide_energy>
-40.5561537742615

> <r_i_glide_einternal>
1.52177309989929

> <i_i_glide_confnum>
3

> <i_i_glide_posenum>
17

> <r_i_glide_eff_state_penalty>
0

> <PMID>
8879541

> <Temp C>
22

> <r_glide_shape_similarity>
0.763782024383545

> <pH>
7.6

> <s_m_subgroup_title>
505 training

> <s_m_subgroupid>
pocket_pv

> <b_m_subgroup_collapsed>
0

$$$$
BindingDB_3567_mol_1
                    3D
 Schrodinger Suite 2021-2.
 36 38  0  0  1  0            999 V2000
   22.0663   -0.1603   53.4998 C   0  0  0  0  0  0
   21.2664   -1.1053   54.1762 C   0  0  0  0  0  0
   23.4204   -0.0796   53.8727 C   0  0  0  0  0  0
   23.0828   -1.7273   55.4111 C   0  0  0  0  0  0
   23.9130   -0.8751   54.8378 N   0  0  0  0  0  0
   21.7957   -1.8898   55.1326 N   0  0  0  0  0  0
   24.3005    0.8404   53.2851 N   0  0  0  0  0  0
   25.6915    0.7189   53.2651 C   0  0  0  0  0  0
   27.9288    1.6226   53.5384 C   0  0  0  0  0  0
   26.5401    1.8299   53.4255 C   0  0  0  0  0  0
   26.2512   -0.5615   53.1054 C   0  0  0  0  0  0
   20.1593    0.5217   52.1386 C   0  0  0  0  0  0
   19.3402   -0.3816   52.8339 C   0  0  0  0  0  0
   27.6211   -0.7711   53.2280 C   0  0  0  0  0  0
   19.9061   -1.2010   53.8366 C   0  0  0  0  0  0
   18.0183   -0.4010   52.4572 O   0  0  0  0  0  0
   17.1080   -1.1465   53.2346 C   0  0  0  0  0  0
   19.5862    1.2622   51.1343 O   0  0  0  0  0  0
   20.3926    1.5618   50.0079 C   0  0  0  0  0  0
   21.5143    0.6458   52.4913 C   0  0  0  0  0  0
   28.4486    0.3155   53.4780 C   0  0  0  0  0  0
   30.2709   -0.0662   53.7745 Br  0  0  0  0  0  0
   23.4967   -2.3676   56.1750 H   0  0  0  0  0  0
   23.8948    1.6575   52.8632 H   0  0  0  0  0  0
   28.5872    2.4608   53.7176 H   0  0  0  0  0  0
   26.1375    2.8296   53.5205 H   0  0  0  0  0  0
   25.6211   -1.4216   52.9330 H   0  0  0  0  0  0
   28.0285   -1.7697   53.1616 H   0  0  0  0  0  0
   19.3018   -1.9113   54.3791 H   0  0  0  0  0  0
   16.0937   -0.9626   52.8810 H   0  0  0  0  0  0
   17.3009   -2.2163   53.1464 H   0  0  0  0  0  0
   17.1465   -0.8644   54.2874 H   0  0  0  0  0  0
   19.7531    1.8543   49.1753 H   0  0  0  0  0  0
   20.9790    0.6995   49.6853 H   0  0  0  0  0  0
   21.0663    2.3938   50.2165 H   0  0  0  0  0  0
   22.1333    1.3596   51.9708 H   0  0  0  0  0  0
  1  2  1  0  0  0
  1  3  2  0  0  0
  1 20  1  0  0  0
  2  6  2  0  0  0
  2 15  1  0  0  0
  3  5  1  0  0  0
  3  7  1  0  0  0
  4  5  2  0  0  0
  4  6  1  0  0  0
  4 23  1  0  0  0
  7  8  1  0  0  0
  7 24  1  0  0  0
  8 10  2  0  0  0
  8 11  1  0  0  0
  9 10  1  0  0  0
  9 21  2  0  0  0
  9 25  1  0  0  0
 10 26  1  0  0  0
 11 14  2  0  0  0
 11 27  1  0  0  0
 12 13  1  0  0  0
 12 18  1  0  0  0
 12 20  2  0  0  0
 13 15  2  0  0  0
 13 16  1  0  0  0
 14 21  1  0  0  0
 14 28  1  0  0  0
 15 29  1  0  0  0
 16 17  1  0  0  0
 17 30  1  0  0  0
 17 31  1  0  0  0
 17 32  1  0  0  0
 18 19  1  0  0  0
 19 33  1  0  0  0
 19 34  1  0  0  0
 19 35  1  0  0  0
 20 36  1  0  0  0
 21 22  1  0  0  0
M  END
> <s_m_entry_id>
286

> <s_m_entry_name>
pocket_pv.97

> <s_m_Source_Path>
/home/bortolaa/Project/GT/mario-master/docking/set505protein_struct_1_site_1_set505ligs_train

> <s_m_Source_File>
pocket_pv.maegz

> <i_m_Source_File_Index>
97

> <From>
www.bindingDB.org

> <BindingDB Reactant_set_id>
50927729

> <Ligand InChI>
InChI=1S/C16H14BrN3O2/c1-21-14-7-12-13(8-15(14)22-2)18-9-19-16(12)20-11-5-3-10(17)4-6-11/h3-9H,1-2H3,(H,18,19,20)

> <Ligand InChI Key>
MCNVTWIIWNZMGB-UHFFFAOYSA-N

> <BindingDB MonomerID>
3567

> <BindingDB Ligand Name>
CHEMBL328106::N-(4-bromophenyl)-6,7-dimethoxyquinazolin-4-amine::PD153035 Analog 67

> <Target Name Assigned by Curator or DataSource>
Epidermal growth factor receptor

> <Target Source Organism According to Curator or DataSource>
Homo sapiens

> <Ki (nM)>


> <IC50 (nM)>
3600

> <Kd (nM)>


> <EC50 (nM)>


> <kon (M-1-s-1)>


> <koff (s-1)>


> <pH>


> <Temp C>


> <Curation/DataSource>
ChEMBL

> <Article DOI>
10.1021/jm2013453

> <PubChem AID>


> <Patent Number>


> <Authors>
Garofalo, A; Farce, A; Ravez, S; Lemoine, A; Six, P; Chavatte, P; Goossens, L; Depreux, P

> <Institution>
Univ. Lille Nord de France

> <Link to Ligand in BindingDB>
http://www.bindingdb.org/bind/chemsearch/marvin/MolStructure.jsp?monomerid=3567

> <Link to Ligand-Target Pair in BindingDB>
http://www.bindingdb.org/jsp/dbsearch/PrimarySearch_ki.jsp?energyterm=kJ/mole&tag=r21&monomerid=3567&enzyme=Epidermal+growth+factor+receptor&column=ki&startPg=0&Increment=50&submit=Search

> <Ligand HET ID in PDB>


> <PDB ID(s) for Ligand-Target Complex>


> <PubChem CID>
1474852

> <PubChem SID>
8033290

> <ChEBI ID of Ligand>


> <ChEMBL ID of Ligand>
CHEMBL328106

> <DrugBank ID of Ligand>


> <IUPHAR_GRAC ID of Ligand>


> <KEGG ID of Ligand>


> <ZINC ID of Ligand>
ZINC01386782

> <Number of Protein Chains in Target (>
1

> <BindingDB Target Chain Sequence>
MRPSGTAGAALLALLAALCPASRALEEKKVCQGTSNKLTQLGTFEDHFLSLQRMFNNCEVVLGNLEITYVQRNYDLSFLKTIQEVAGYVLIALNTVERIPLENLQIIRGNMYYENSYALAVLSNYDANKTGLKELPMRNLQEILHGAVRFSNNPALCNVESIQWRDIVSSDFLSNMSMDFQNHLGSCQKCDPSCPNGSCWGAGEENCQKLTKIICAQQCSGRCRGKSPSDCCHNQCAAGCTGPRESDCLVCRKFRDEATCKDTCPPLMLYNPTTYQMDVNPEGKYSFGATCVKKCPRNYVVTDHGSCVRACGADSYEMEEDGVRKCKKCEGPCRKVCNGIGIGEFKDSLSINATNIKHFKNCTSISGDLHILPVAFRGDSFTHTPPLDPQELDILKTVKEITGFLLIQAWPENRTDLHAFENLEIIRGRTKQHGQFSLAVVSLNITSLGLRSLKEISDGDVIISGNKNLCYANTINWKKLFGTSGQKTKIISNRGENSCKATGQVCHALCSPEGCWGPEPRDCVSCRNVSRGRECVDKCNLLEGEPREFVENSECIQCHPECLPQAMNITCTGRGPDNCIQCAHYIDGPHCVKTCPAGVMGENNTLVWKYADAGHVCHLCHPNCTYGCTGPGLEGCPTNGPKIPSIATGMVGALLLLLVVALGIGLFMRRRHIVRKRTLRRLLQERELVEPLTPSGEAPNQALLRILKETEFKKIKVLGSGAFGTVYKGLWIPEGEKVKIPVAIKELREATSPKANKEILDEAYVMASVDNPHVCRLLGICLTSTVQLITQLMPFGCLLDYVREHKDNIGSQYLLNWCVQIAKGMNYLEDRRLVHRDLAARNVLVKTPQHVKITDFGLAKLLGAEEKEYHAEGGKVPIKWMALESILHRIYTHQSDVWSYGVTVWELMTFGSKPYDGIPASEISSILEKGERLPQPPICTIDVYMIMVKCWMIDADSRPKFRELIIEFSKMARDPQRYLVIQGDERMHLPSPTDSNFYRALMDEEDMDDVVDADEYLIPQQGFFSSPSTSRTPLLSSLSATSNNSTVACIDRNGLQSCPIKEDSFLQRYSSDPTGALTEDSIDDTFLPVPEYINQSVPKRPAGSVQNPVYHNQPLNPAPSRDPHYQDPHSTAVGNPEYLNTVQPTCVNSTFDSPAHWAQKGSHQISLDNPDYQQDFFPKEAKPNGIFKGSTAENAEYLRVAPQSSEFIGA

> <PDB ID(s) of Target Chain>
1IVO,1M14,1M17,1MOX,1XKK,1Z9I,2GS2,2GS6,2ITW,2ITX,2ITY,2J5E,2J5F,2J6M,2RF9,2RGP,3B2V,3BEL,3GOP,3POZ,3QWQ,3VJO,3W2O,3W2P,3W2Q,3W2R,3W2S,3W32,3W33,4G5J,4I23,4JQ7,4JQ8,4JR3,4JRV,4KRO,4LI5,4RJ4,4RJ5,4RJ6,4RJ7,4RJ8,4TKS,4UIP,4UV7,4WKQ,4WRG,4ZAU,5C8K,5C8M,5C8N,5CAL,5CAN,5CAO,5CAP,5CAQ,5CAS,5CAU,5CAV,5EDP,5EDQ,5EDR,5EM5,5EM6,5EM7,5EM8,5FED,5GNK,5HCX,5HCY,5HCZ,5HIB,5HIC,5UGB,5WB7,5WB8,5Y25,6S89,6S8A

> <UniProt (SwissProt) Recommended Name of Target Chain>
Epidermal growth factor receptor

> <UniProt (SwissProt) Entry Name of Target Chain>
EGFR_HUMAN

> <UniProt (SwissProt) Primary ID of Target Chain>
P00533

> <UniProt (SwissProt) Secondary ID(s) of Target Chain>
O00688,O00732,P06268,Q14225,Q68GS5,Q92795,Q9BZS2,Q9GZX1,Q9H2C9,Q9H3C9,Q9UMD7,Q9UMD8,Q9UMG5

> <UniProt (SwissProt) Alternative ID(s) of Target Chain>


> <UniProt (TrEMBL) Submitted Name of Target Chain>


> <UniProt (TrEMBL) Entry Name of Target Chain>


> <UniProt (TrEMBL) Primary ID of Target Chain>


> <UniProt (TrEMBL) Secondary ID(s) of Target Chain>


> <UniProt (TrEMBL) Alternative ID(s) of Target Chain>


> <training label>
5.4437

> <i_lp_mmshare_version>
54117

> <s_epik_input>
W0NIM11PYyhbY0hdMSljKE9bQ0gzXSlbY0hdYyhjMTIpbltjSF1uYzJbTkhdYzNbY0hdW2NIXWMoQnIpW2NIXVtjSF0z

> <s_epik_cmdline>
J2VwaWtfcHl0aG9uJywgJy1waHQnLCAnMC4xJywgJy1waCcsICc3LjQnLCAnLXRuJywgJzgnLCAnLW1hJywgJzIwMCcsICctaW1hZScsICc8aW5maWxlLm1hZT4nLCAnLW9tYWUnLCAnPG91dGZpbGUubWFlPic=

> <r_lp_tautomer_probability>
1

> <r_epik_Ionization_Penalty>
  0.0006

> <r_epik_Ionization_Penalty_Charging>
  0.0000

> <r_epik_Ionization_Penalty_Neutral>
  0.0006

> <r_epik_State_Penalty>
  0.0000

> <r_epik_Charging_Adjusted_Penalty>
0

> <i_epik_Tot_Q>
0

> <i_epik_Tot_abs_Q>
0

> <i_f3d_flags>
0

> <s_lp_Force_Field>
OPLS_2005

> <r_lp_Energy>
19.019171

> <b_lp_Chiralities_Consistent>
1

> <s_lp_Variant>
BindingDB_3567_mol_1-1

> <s_i_glide_gridfile>
struct_1_site_1

> <i_i_glide_lignum>
48

> <i_i_glide_rotatable_bonds>
4

> <r_i_docking_score>
-7.69872239482492

> <r_i_glide_ligand_efficiency>
-0.349941927037496

> <r_i_glide_ligand_efficiency_sa>
-0.980551041994094

> <r_i_glide_ligand_efficiency_ln>
-1.88184857101766

> <r_i_glide_gscore>
-7.69872239482492

> <r_i_glide_lipo>
-2.95315772858853

> <r_i_glide_hbond>
-0.32

> <r_i_glide_metal>
0

> <r_i_glide_rewards>
-2.11704024270196

> <r_i_glide_evdw>
-38.3283996582031

> <r_i_glide_ecoul>
-4.58465099334717

> <r_i_glide_erotb>
0.295593208377807

> <r_i_glide_esite>
0

> <r_i_glide_emodel>
-39.167031932761

> <r_i_glide_energy>
-42.9130506515503

> <r_i_glide_einternal>
0.834947645664215

> <i_i_glide_confnum>
1

> <i_i_glide_posenum>
26

> <r_i_glide_eff_state_penalty>
0

> <PMID>
22229669

> <r_glide_shape_similarity>
0.763378500938416

> <s_m_subgroup_title>
505 training

> <s_m_subgroupid>
pocket_pv

> <b_m_subgroup_collapsed>
0

$$$$
BindingDB_3568_mol_1
                    3D
 Schrodinger Suite 2021-2.
 36 38  0  0  1  0            999 V2000
   22.0554   -0.1637   53.5022 C   0  0  0  0  0  0
   21.2585   -1.1077   54.1783 C   0  0  0  0  0  0
   23.4032   -0.0931   53.8789 C   0  0  0  0  0  0
   23.0714   -1.7332   55.4178 C   0  0  0  0  0  0
   23.8987   -0.8803   54.8482 N   0  0  0  0  0  0
   21.7862   -1.8946   55.1341 N   0  0  0  0  0  0
   24.2935    0.7803   53.2598 N   0  0  0  0  0  0
   25.6603    0.5549   53.1871 C   0  0  0  0  0  0
   27.9161    1.3067   53.4801 C   0  0  0  0  0  0
   26.5566    1.6065   53.3664 C   0  0  0  0  0  0
   26.1404   -0.7563   52.9982 C   0  0  0  0  0  0
   20.1561    0.5204   52.1369 C   0  0  0  0  0  0
   19.3368   -0.3823   52.8333 C   0  0  0  0  0  0
   27.4967   -1.0519   53.1293 C   0  0  0  0  0  0
   19.9007   -1.2022   53.8362 C   0  0  0  0  0  0
   18.0149   -0.4010   52.4561 O   0  0  0  0  0  0
   17.1029   -1.1439   53.2344 C   0  0  0  0  0  0
   19.5780    1.2567   51.1321 O   0  0  0  0  0  0
   20.3946    1.6202   50.0315 C   0  0  0  0  0  0
   21.5107    0.6425   52.4898 C   0  0  0  0  0  0
   28.3814   -0.0186   53.4097 C   0  0  0  0  0  0
   30.1843   -0.4853   53.7280 Br  0  0  0  0  0  0
   29.0887    2.7338   53.7821 Br  0  0  0  0  0  0
   23.4876   -2.3793   56.1750 H   0  0  0  0  0  0
   23.9226    1.6283   52.8660 H   0  0  0  0  0  0
   26.2128    2.6254   53.4811 H   0  0  0  0  0  0
   25.4571   -1.5720   52.8155 H   0  0  0  0  0  0
   27.8455   -2.0720   53.0519 H   0  0  0  0  0  0
   19.2949   -1.9125   54.3768 H   0  0  0  0  0  0
   16.0890   -0.9598   52.8790 H   0  0  0  0  0  0
   17.2946   -2.2142   53.1481 H   0  0  0  0  0  0
   17.1407   -0.8601   54.2867 H   0  0  0  0  0  0
   19.7615    1.9387   49.2034 H   0  0  0  0  0  0
   20.9999    0.7817   49.6814 H   0  0  0  0  0  0
   21.0497    2.4545   50.2873 H   0  0  0  0  0  0
   22.1340    1.3534   51.9708 H   0  0  0  0  0  0
  1  2  1  0  0  0
  1  3  2  0  0  0
  1 20  1  0  0  0
  2  6  2  0  0  0
  2 15  1  0  0  0
  3  5  1  0  0  0
  3  7  1  0  0  0
  4  5  2  0  0  0
  4  6  1  0  0  0
  4 24  1  0  0  0
  7  8  1  0  0  0
  7 25  1  0  0  0
  8 10  2  0  0  0
  8 11  1  0  0  0
  9 10  1  0  0  0
  9 21  2  0  0  0
  9 23  1  0  0  0
 10 26  1  0  0  0
 11 14  2  0  0  0
 11 27  1  0  0  0
 12 13  1  0  0  0
 12 18  1  0  0  0
 12 20  2  0  0  0
 13 15  2  0  0  0
 13 16  1  0  0  0
 14 21  1  0  0  0
 14 28  1  0  0  0
 15 29  1  0  0  0
 16 17  1  0  0  0
 17 30  1  0  0  0
 17 31  1  0  0  0
 17 32  1  0  0  0
 18 19  1  0  0  0
 19 33  1  0  0  0
 19 34  1  0  0  0
 19 35  1  0  0  0
 20 36  1  0  0  0
 21 22  1  0  0  0
M  END
> <s_m_entry_id>
287

> <s_m_entry_name>
pocket_pv.98

> <s_m_Source_Path>
/home/bortolaa/Project/GT/mario-master/docking/set505protein_struct_1_site_1_set505ligs_train

> <s_m_Source_File>
pocket_pv.maegz

> <i_m_Source_File_Index>
98

> <From>
www.bindingDB.org

> <BindingDB Reactant_set_id>
5330

> <Ligand InChI>
InChI=1S/C16H13Br2N3O2/c1-22-14-6-10-13(7-15(14)23-2)19-8-20-16(10)21-9-3-4-11(17)12(18)5-9/h3-8H,1-2H3,(H,19,20,21)

> <Ligand InChI Key>
RCDYQKFTBRQJIS-UHFFFAOYSA-N

> <BindingDB MonomerID>
3568

> <BindingDB Ligand Name>
CHEMBL327307::N-(3,4-dibromophenyl)-6,7-dimethoxyquinazolin-4-amine::PD153035 Analog 68

> <Target Name Assigned by Curator or DataSource>
Epidermal growth factor receptor

> <Target Source Organism According to Curator or DataSource>
Homo sapiens

> <Ki (nM)>


> <Kd (nM)>


> <EC50 (nM)>


> <kon (M-1-s-1)>


> <koff (s-1)>


> <pH>


> <Temp C>


> <Curation/DataSource>
Curated from the literature by BindingDB

> <Article DOI>
10.1021/bi060184f

> <PMID>


> <PubChem AID>


> <Patent Number>


> <Authors>
Bridges, AJ; Zhou, HR; Cody, DR; Rewcastle, GW; McMichael, A; Showalter, HH; Fry, DW; Kraker, AJ; Denny, WA

> <Institution>
Parke-Davis Pharmaceutical Research

> <Link to Ligand in BindingDB>
http://www.bindingdb.org/bind/chemsearch/marvin/MolStructure.jsp?monomerid=3568

> <Link to Ligand-Target Pair in BindingDB>
http://www.bindingdb.org/jsp/dbsearch/PrimarySearch_ki.jsp?energyterm=kJ/mole&tag=r21&monomerid=3568&enzyme=Epidermal+growth+factor+receptor&column=ki&startPg=0&Increment=50&submit=Search

> <Ligand HET ID in PDB>


> <PDB ID(s) for Ligand-Target Complex>


> <PubChem CID>
5328231

> <PubChem SID>
8033291

> <ChEBI ID of Ligand>


> <ChEMBL ID of Ligand>
CHEMBL327307

> <DrugBank ID of Ligand>


> <IUPHAR_GRAC ID of Ligand>


> <KEGG ID of Ligand>


> <ZINC ID of Ligand>
ZINC03815032

> <Number of Protein Chains in Target (>
1

> <BindingDB Target Chain Sequence>
MRPSGTAGAALLALLAALCPASRALEEKKVCQGTSNKLTQLGTFEDHFLSLQRMFNNCEVVLGNLEITYVQRNYDLSFLKTIQEVAGYVLIALNTVERIPLENLQIIRGNMYYENSYALAVLSNYDANKTGLKELPMRNLQEILHGAVRFSNNPALCNVESIQWRDIVSSDFLSNMSMDFQNHLGSCQKCDPSCPNGSCWGAGEENCQKLTKIICAQQCSGRCRGKSPSDCCHNQCAAGCTGPRESDCLVCRKFRDEATCKDTCPPLMLYNPTTYQMDVNPEGKYSFGATCVKKCPRNYVVTDHGSCVRACGADSYEMEEDGVRKCKKCEGPCRKVCNGIGIGEFKDSLSINATNIKHFKNCTSISGDLHILPVAFRGDSFTHTPPLDPQELDILKTVKEITGFLLIQAWPENRTDLHAFENLEIIRGRTKQHGQFSLAVVSLNITSLGLRSLKEISDGDVIISGNKNLCYANTINWKKLFGTSGQKTKIISNRGENSCKATGQVCHALCSPEGCWGPEPRDCVSCRNVSRGRECVDKCNLLEGEPREFVENSECIQCHPECLPQAMNITCTGRGPDNCIQCAHYIDGPHCVKTCPAGVMGENNTLVWKYADAGHVCHLCHPNCTYGCTGPGLEGCPTNGPKIPSIATGMVGALLLLLVVALGIGLFMRRRHIVRKRTLRRLLQERELVEPLTPSGEAPNQALLRILKETEFKKIKVLGSGAFGTVYKGLWIPEGEKVKIPVAIKELREATSPKANKEILDEAYVMASVDNPHVCRLLGICLTSTVQLITQLMPFGCLLDYVREHKDNIGSQYLLNWCVQIAKGMNYLEDRRLVHRDLAARNVLVKTPQHVKITDFGLAKLLGAEEKEYHAEGGKVPIKWMALESILHRIYTHQSDVWSYGVTVWELMTFGSKPYDGIPASEISSILEKGERLPQPPICTIDVYMIMVKCWMIDADSRPKFRELIIEFSKMARDPQRYLVIQGDERMHLPSPTDSNFYRALMDEEDMDDVVDADEYLIPQQGFFSSPSTSRTPLLSSLSATSNNSTVACIDRNGLQSCPIKEDSFLQRYSSDPTGALTEDSIDDTFLPVPEYINQSVPKRPAGSVQNPVYHNQPLNPAPSRDPHYQDPHSTAVGNPEYLNTVQPTCVNSTFDSPAHWAQKGSHQISLDNPDYQQDFFPKEAKPNGIFKGSTAENAEYLRVAPQSSEFIGA

> <PDB ID(s) of Target Chain>
1IVO,1M14,1M17,1MOX,1XKK,1Z9I,2GS2,2GS6,2ITW,2ITX,2ITY,2J5E,2J5F,2J6M,2RF9,2RGP,3B2V,3BEL,3GOP,3POZ,3QWQ,3VJO,3W2O,3W2P,3W2Q,3W2R,3W2S,3W32,3W33,4G5J,4I23,4JQ7,4JQ8,4JR3,4JRV,4KRO,4LI5,4RJ4,4RJ5,4RJ6,4RJ7,4RJ8,4TKS,4UIP,4UV7,4WKQ,4WRG,4ZAU,5C8K,5C8M,5C8N,5CAL,5CAN,5CAO,5CAP,5CAQ,5CAS,5CAU,5CAV,5EDP,5EDQ,5EDR,5EM5,5EM6,5EM7,5EM8,5FED,5GNK,5HCX,5HCY,5HCZ,5HIB,5HIC,5UGB,5WB7,5WB8,5Y25,6S89,6S8A

> <UniProt (SwissProt) Recommended Name of Target Chain>
Epidermal growth factor receptor

> <UniProt (SwissProt) Entry Name of Target Chain>
EGFR_HUMAN

> <UniProt (SwissProt) Primary ID of Target Chain>
P00533

> <UniProt (SwissProt) Secondary ID(s) of Target Chain>
O00688,O00732,P06268,Q14225,Q68GS5,Q92795,Q9BZS2,Q9GZX1,Q9H2C9,Q9H3C9,Q9UMD7,Q9UMD8,Q9UMG5

> <UniProt (SwissProt) Alternative ID(s) of Target Chain>


> <UniProt (TrEMBL) Submitted Name of Target Chain>


> <UniProt (TrEMBL) Entry Name of Target Chain>


> <UniProt (TrEMBL) Primary ID of Target Chain>


> <UniProt (TrEMBL) Secondary ID(s) of Target Chain>


> <UniProt (TrEMBL) Alternative ID(s) of Target Chain>


> <training label>
10.1427

> <i_lp_mmshare_version>
54117

> <s_epik_input>
W0NIM11PYyhbY0hdMSljKE9bQ0gzXSlbY0hdYyhjMTIpbltjSF1uYzJbTkhdYzNbY0hdYyhCciljKEJyKVtjSF1bY0hdMw==

> <s_epik_cmdline>
J2VwaWtfcHl0aG9uJywgJy1waHQnLCAnMC4xJywgJy1waCcsICc3LjQnLCAnLXRuJywgJzgnLCAnLW1hJywgJzIwMCcsICctaW1hZScsICc8aW5maWxlLm1hZT4nLCAnLW9tYWUnLCAnPG91dGZpbGUubWFlPic=

> <r_lp_tautomer_probability>
1

> <r_epik_Ionization_Penalty>
  0.0006

> <r_epik_Ionization_Penalty_Charging>
  0.0000

> <r_epik_Ionization_Penalty_Neutral>
  0.0006

> <r_epik_State_Penalty>
  0.0000

> <r_epik_Charging_Adjusted_Penalty>
0

> <i_epik_Tot_Q>
0

> <i_epik_Tot_abs_Q>
0

> <i_f3d_flags>
0

> <s_lp_Force_Field>
OPLS_2005

> <r_lp_Energy>
19.81297

> <b_lp_Chiralities_Consistent>
1

> <s_lp_Variant>
BindingDB_3568_mol_1-1

> <s_i_glide_gridfile>
struct_1_site_1

> <i_i_glide_lignum>
292

> <i_i_glide_rotatable_bonds>
4

> <r_i_docking_score>
-7.67659855765039

> <r_i_glide_ligand_efficiency>
-0.333765154680452

> <r_i_glide_ligand_efficiency_sa>
-0.949183701428733

> <r_i_glide_ligand_efficiency_ln>
-1.85627113878713

> <r_i_glide_gscore>
-7.67659855765039

> <r_i_glide_lipo>
-3.23465740310879

> <r_i_glide_hbond>
-0.32

> <r_i_glide_metal>
0

> <r_i_glide_rewards>
-1.56989526792632

> <r_i_glide_evdw>
-42.4744529724121

> <r_i_glide_ecoul>
-4.23545837402344

> <r_i_glide_erotb>
0.206995518108842

> <r_i_glide_esite>
0

> <r_i_glide_emodel>
-45.042936862484

> <r_i_glide_energy>
-46.7099113464355

> <r_i_glide_einternal>
1.77621042728424

> <i_i_glide_confnum>
3

> <i_i_glide_posenum>
203

> <r_i_glide_eff_state_penalty>
0

> <IC50 (nM)>
0.072

> <r_glide_shape_similarity>
0.775120377540588

> <s_m_subgroup_title>
505 training

> <s_m_subgroupid>
pocket_pv

> <b_m_subgroup_collapsed>
0

$$$$
BindingDB_50117986
                    3D
 Schrodinger Suite 2021-2.
 49 52  0  0  1  0            999 V2000
   21.3821    0.0065   53.0793 C   0  0  0  0  0  0
   22.7311    0.0624   53.5402 C   0  0  0  0  0  0
   20.5207   -0.9187   53.7382 C   0  0  0  0  0  0
   20.8761    0.8104   52.0220 C   0  0  0  0  0  0
   27.3575   -2.2997   52.8638 N   0  0  0  0  0  0
   23.1809   -0.7944   54.4906 N   0  0  0  0  0  0
   19.1512   -0.9562   53.3727 C   0  0  0  0  0  0
   27.9899   -1.1691   53.1998 C   0  0  0  0  0  0
   23.6121    1.0630   53.0739 N   0  0  0  0  0  0
   28.2848   -3.2659   52.9738 N   0  0  0  0  0  0
   19.5087    0.7377   51.6477 C   0  0  0  0  0  0
   18.6201   -0.1077   52.3616 C   0  0  0  0  0  0
   21.0101   -1.7416   54.6986 N   0  0  0  0  0  0
   29.3719   -1.3917   53.4736 C   0  0  0  0  0  0
   27.2223    0.0711   53.2716 C   0  0  0  0  0  0
   22.3073   -1.6577   54.9975 C   0  0  0  0  0  0
   29.4877   -2.7516   53.3755 C   0  0  0  0  0  0
   25.0107    1.1527   53.2242 C   0  0  0  0  0  0
   25.8095   -0.0036   53.2030 C   0  0  0  0  0  0
   18.9761    1.5060   50.6289 O   0  0  0  0  0  0
   17.2743   -0.0428   52.0194 O   0  0  0  0  0  0
   27.8572    1.3289   53.3994 C   0  0  0  0  0  0
   27.0657    2.4965   53.4170 C   0  0  0  0  0  0
   25.6552    2.4108   53.3212 C   0  0  0  0  0  0
   16.3042   -0.6173   52.8997 C   0  0  0  0  0  0
   19.6977    1.5605   49.3985 C   0  0  0  0  0  0
   14.9309    0.0358   52.6681 C   0  0  0  0  0  0
   20.1822    2.9888   49.1469 C   0  0  0  0  0  0
   21.5276    1.4932   51.4974 H   0  0  0  0  0  0
   18.5121   -1.6410   53.9076 H   0  0  0  0  0  0
   23.1726    1.8458   52.6085 H   0  0  0  0  0  0
   28.0471   -4.2562   52.8931 H   0  0  0  0  0  0
   30.1313   -0.6842   53.7759 H   0  0  0  0  0  0
   22.6788   -2.3308   55.7552 H   0  0  0  0  0  0
   30.2913   -3.4223   53.5926 H   0  0  0  0  0  0
   25.3255   -0.9613   53.0948 H   0  0  0  0  0  0
   28.9324    1.4071   53.4585 H   0  0  0  0  0  0
   27.5313    3.4697   53.4954 H   0  0  0  0  0  0
   25.0766    3.3236   53.3244 H   0  0  0  0  0  0
   16.2481   -1.6928   52.7263 H   0  0  0  0  0  0
   16.5790   -0.4726   53.9440 H   0  0  0  0  0  0
   19.0121    1.2790   48.5999 H   0  0  0  0  0  0
   20.5266    0.8505   49.3590 H   0  0  0  0  0  0
   14.1833   -0.3852   53.3430 H   0  0  0  0  0  0
   14.9766    1.1104   52.8444 H   0  0  0  0  0  0
   14.5905   -0.1209   51.6461 H   0  0  0  0  0  0
   20.6880    3.0564   48.1846 H   0  0  0  0  0  0
   20.8842    3.3109   49.9158 H   0  0  0  0  0  0
   19.3480    3.6908   49.1326 H   0  0  0  0  0  0
  1  2  1  0  0  0
  1  3  1  0  0  0
  1  4  2  0  0  0
  2  6  2  0  0  0
  2  9  1  0  0  0
  3  7  2  0  0  0
  3 13  1  0  0  0
  4 11  1  0  0  0
  4 29  1  0  0  0
  5  8  2  0  0  0
  5 10  1  0  0  0
  6 16  1  0  0  0
  7 12  1  0  0  0
  7 30  1  0  0  0
  8 14  1  0  0  0
  8 15  1  0  0  0
  9 18  1  0  0  0
  9 31  1  0  0  0
 10 17  1  0  0  0
 10 32  1  0  0  0
 11 12  2  0  0  0
 11 20  1  0  0  0
 12 21  1  0  0  0
 13 16  2  0  0  0
 14 17  2  0  0  0
 14 33  1  0  0  0
 15 19  1  0  0  0
 15 22  2  0  0  0
 16 34  1  0  0  0
 17 35  1  0  0  0
 18 19  2  0  0  0
 18 24  1  0  0  0
 19 36  1  0  0  0
 20 26  1  0  0  0
 21 25  1  0  0  0
 22 23  1  0  0  0
 22 37  1  0  0  0
 23 24  2  0  0  0
 23 38  1  0  0  0
 24 39  1  0  0  0
 25 27  1  0  0  0
 25 40  1  0  0  0
 25 41  1  0  0  0
 26 28  1  0  0  0
 26 42  1  0  0  0
 26 43  1  0  0  0
 27 44  1  0  0  0
 27 45  1  0  0  0
 27 46  1  0  0  0
 28 47  1  0  0  0
 28 48  1  0  0  0
 28 49  1  0  0  0
M  END
> <s_m_entry_id>
288

> <s_m_entry_name>
pocket_pv.99

> <s_m_Source_Path>
/home/bortolaa/Project/GT/mario-master/docking/set505protein_struct_1_site_1_set505ligs_train

> <s_m_Source_File>
pocket_pv.maegz

> <i_m_Source_File_Index>
99

> <From>
www.bindingDB.org

> <BindingDB Reactant_set_id>
50213024

> <Ligand InChI>
InChI=1S/C21H21N5O2/c1-3-27-19-11-16-18(12-20(19)28-4-2)22-13-23-21(16)25-15-7-5-6-14(10-15)17-8-9-24-26-17/h5-13H,3-4H2,1-2H3,(H,24,26)(H,22,23,25)

> <Ligand InChI Key>
KQEIKIGFBVHSFM-UHFFFAOYSA-N

> <BindingDB MonomerID>
50117986

> <BindingDB Ligand Name>
(6,7-Diethoxy-quinazolin-4-yl)-[3-(1H-pyrazol-3-yl)-phenyl]-amine::CHEMBL125920

> <Target Name Assigned by Curator or DataSource>
Epidermal growth factor receptor

> <Target Source Organism According to Curator or DataSource>
Homo sapiens

> <Ki (nM)>


> <Kd (nM)>


> <EC50 (nM)>


> <kon (M-1-s-1)>


> <koff (s-1)>


> <pH>


> <Temp C>


> <Curation/DataSource>
ChEMBL

> <Article DOI>
10.1021/jm010496a

> <PubChem AID>


> <Patent Number>


> <Authors>
Wright, SW; Carlo, AA; Carty, MD; Danley, DE; Hageman, DL; Karam, GA; Levy, CB; Mansour, MN; Mathiowetz, AM; McClure, LD; Nestor, NB; McPherson, RK; Pandit, J; Pustilnik, LR; Schulte, GK; Soeller, WC; Treadway, JL; Wang, IK; Bauer, PH

> <Institution>
Pfizer Central Research

> <Link to Ligand in BindingDB>
http://www.bindingdb.org/bind/chemsearch/marvin/MolStructure.jsp?monomerid=50117986

> <Link to Ligand-Target Pair in BindingDB>
http://www.bindingdb.org/jsp/dbsearch/PrimarySearch_ki.jsp?energyterm=kJ/mole&tag=r21&monomerid=50117986&enzyme=Epidermal+growth+factor+receptor&column=ki&startPg=0&Increment=50&submit=Search

> <Ligand HET ID in PDB>


> <PDB ID(s) for Ligand-Target Complex>


> <PubChem CID>
10287149

> <PubChem SID>
104011390

> <ChEBI ID of Ligand>


> <ChEMBL ID of Ligand>
CHEMBL125920

> <DrugBank ID of Ligand>


> <IUPHAR_GRAC ID of Ligand>


> <KEGG ID of Ligand>


> <ZINC ID of Ligand>
ZINC13490794

> <Number of Protein Chains in Target (>
1

> <BindingDB Target Chain Sequence>
MRPSGTAGAALLALLAALCPASRALEEKKVCQGTSNKLTQLGTFEDHFLSLQRMFNNCEVVLGNLEITYVQRNYDLSFLKTIQEVAGYVLIALNTVERIPLENLQIIRGNMYYENSYALAVLSNYDANKTGLKELPMRNLQEILHGAVRFSNNPALCNVESIQWRDIVSSDFLSNMSMDFQNHLGSCQKCDPSCPNGSCWGAGEENCQKLTKIICAQQCSGRCRGKSPSDCCHNQCAAGCTGPRESDCLVCRKFRDEATCKDTCPPLMLYNPTTYQMDVNPEGKYSFGATCVKKCPRNYVVTDHGSCVRACGADSYEMEEDGVRKCKKCEGPCRKVCNGIGIGEFKDSLSINATNIKHFKNCTSISGDLHILPVAFRGDSFTHTPPLDPQELDILKTVKEITGFLLIQAWPENRTDLHAFENLEIIRGRTKQHGQFSLAVVSLNITSLGLRSLKEISDGDVIISGNKNLCYANTINWKKLFGTSGQKTKIISNRGENSCKATGQVCHALCSPEGCWGPEPRDCVSCRNVSRGRECVDKCNLLEGEPREFVENSECIQCHPECLPQAMNITCTGRGPDNCIQCAHYIDGPHCVKTCPAGVMGENNTLVWKYADAGHVCHLCHPNCTYGCTGPGLEGCPTNGPKIPSIATGMVGALLLLLVVALGIGLFMRRRHIVRKRTLRRLLQERELVEPLTPSGEAPNQALLRILKETEFKKIKVLGSGAFGTVYKGLWIPEGEKVKIPVAIKELREATSPKANKEILDEAYVMASVDNPHVCRLLGICLTSTVQLITQLMPFGCLLDYVREHKDNIGSQYLLNWCVQIAKGMNYLEDRRLVHRDLAARNVLVKTPQHVKITDFGLAKLLGAEEKEYHAEGGKVPIKWMALESILHRIYTHQSDVWSYGVTVWELMTFGSKPYDGIPASEISSILEKGERLPQPPICTIDVYMIMVKCWMIDADSRPKFRELIIEFSKMARDPQRYLVIQGDERMHLPSPTDSNFYRALMDEEDMDDVVDADEYLIPQQGFFSSPSTSRTPLLSSLSATSNNSTVACIDRNGLQSCPIKEDSFLQRYSSDPTGALTEDSIDDTFLPVPEYINQSVPKRPAGSVQNPVYHNQPLNPAPSRDPHYQDPHSTAVGNPEYLNTVQPTCVNSTFDSPAHWAQKGSHQISLDNPDYQQDFFPKEAKPNGIFKGSTAENAEYLRVAPQSSEFIGA

> <PDB ID(s) of Target Chain>
1IVO,1M14,1M17,1MOX,1XKK,1Z9I,2GS2,2GS6,2ITW,2ITX,2ITY,2J5E,2J5F,2J6M,2RF9,2RGP,3B2V,3BEL,3GOP,3POZ,3QWQ,3VJO,3W2O,3W2P,3W2Q,3W2R,3W2S,3W32,3W33,4G5J,4I23,4JQ7,4JQ8,4JR3,4JRV,4KRO,4LI5,4RJ4,4RJ5,4RJ6,4RJ7,4RJ8,4TKS,4UIP,4UV7,4WKQ,4WRG,4ZAU,5C8K,5C8M,5C8N,5CAL,5CAN,5CAO,5CAP,5CAQ,5CAS,5CAU,5CAV,5EDP,5EDQ,5EDR,5EM5,5EM6,5EM7,5EM8,5FED,5GNK,5HCX,5HCY,5HCZ,5HIB,5HIC,5UGB,5WB7,5WB8,5Y25,6S89,6S8A

> <UniProt (SwissProt) Recommended Name of Target Chain>
Epidermal growth factor receptor

> <UniProt (SwissProt) Entry Name of Target Chain>
EGFR_HUMAN

> <UniProt (SwissProt) Primary ID of Target Chain>
P00533

> <UniProt (SwissProt) Secondary ID(s) of Target Chain>
O00688,O00732,P06268,Q14225,Q68GS5,Q92795,Q9BZS2,Q9GZX1,Q9H2C9,Q9H3C9,Q9UMD7,Q9UMD8,Q9UMG5

> <UniProt (SwissProt) Alternative ID(s) of Target Chain>


> <UniProt (TrEMBL) Submitted Name of Target Chain>


> <UniProt (TrEMBL) Entry Name of Target Chain>


> <UniProt (TrEMBL) Primary ID of Target Chain>


> <UniProt (TrEMBL) Secondary ID(s) of Target Chain>


> <UniProt (TrEMBL) Alternative ID(s) of Target Chain>


> <training label>
7.95861

> <i_lp_mmshare_version>
54117

> <s_epik_input>
W0NIM11bQ0gyXU9jKFtjSF0xKWMoT1tDSDJdW0NIM10pW2NIXWMoYzEyKW5bY0hdbmMyW05IXWMoW2NIXVtjSF1bY0hdMylbY0hdYzMtYzRuW25IXVtjSF1bY0hdNA==

> <s_epik_cmdline>
J2VwaWtfcHl0aG9uJywgJy1waHQnLCAnMC4xJywgJy1waCcsICc3LjQnLCAnLXRuJywgJzgnLCAnLW1hJywgJzIwMCcsICctaW1hZScsICc8aW5maWxlLm1hZT4nLCAnLW9tYWUnLCAnPG91dGZpbGUubWFlPic=

> <r_lp_tautomer_probability>
1

> <r_epik_Ionization_Penalty>
  0.0005

> <r_epik_Ionization_Penalty_Charging>
  0.0000

> <r_epik_Ionization_Penalty_Neutral>
  0.0005

> <r_epik_State_Penalty>
  0.0000

> <r_epik_Charging_Adjusted_Penalty>
0

> <i_epik_Tot_Q>
0

> <i_epik_Tot_abs_Q>
0

> <i_f3d_flags>
0

> <s_lp_Force_Field>
OPLS_2005

> <r_lp_Energy>
22.736347

> <b_lp_Chiralities_Consistent>
1

> <s_lp_Variant>
BindingDB_50117986-1

> <s_i_glide_gridfile>
struct_1_site_1

> <i_i_glide_lignum>
225

> <i_i_glide_rotatable_bonds>
7

> <r_i_docking_score>
-7.67637655797011

> <r_i_glide_ligand_efficiency>
-0.27415630564179

> <r_i_glide_ligand_efficiency_sa>
-0.832500013357346

> <r_i_glide_ligand_efficiency_ln>
-1.77193309778897

> <r_i_glide_gscore>
-7.67637655797011

> <r_i_glide_lipo>
-3.50543901092274

> <r_i_glide_hbond>
-0.4379682741397

> <r_i_glide_metal>
0

> <r_i_glide_rewards>
-1.26634380775484

> <r_i_glide_evdw>
-45.7212219238281

> <r_i_glide_ecoul>
-5.77930116653442

> <r_i_glide_erotb>
0.686330806018738

> <r_i_glide_esite>
0

> <r_i_glide_emodel>
-58.817147847009

> <r_i_glide_energy>
-51.5005230903625

> <r_i_glide_einternal>
2.20693254470825

> <i_i_glide_confnum>
11

> <i_i_glide_posenum>
301

> <r_i_glide_eff_state_penalty>
0

> <IC50 (nM)>
11

> <PMID>
12190310

> <r_glide_shape_similarity>
0.846454083919525

> <s_m_subgroup_title>
505 training

> <s_m_subgroupid>
pocket_pv

> <b_m_subgroup_collapsed>
0

$$$$
BindingDB_3569_mol_1
                    3D
 Schrodinger Suite 2021-2.
 36 38  0  0  1  0            999 V2000
   22.0695   -0.1669   53.5031 C   0  0  0  0  0  0
   21.2633   -1.1023   54.1812 C   0  0  0  0  0  0
   23.4265   -0.1211   53.8695 C   0  0  0  0  0  0
   23.0763   -1.7412   55.4192 C   0  0  0  0  0  0
   23.9149   -0.9079   54.8386 N   0  0  0  0  0  0
   21.7871   -1.8892   55.1376 N   0  0  0  0  0  0
   24.3484    0.7020   53.2282 N   0  0  0  0  0  0
   25.7245    0.4831   53.2190 C   0  0  0  0  0  0
   27.6634   -1.0256   53.1581 C   0  0  0  0  0  0
   26.2776   -0.8131   53.0698 C   0  0  0  0  0  0
   26.5755    1.5714   53.3830 C   0  0  0  0  0  0
   20.1680    0.5239   52.1393 C   0  0  0  0  0  0
   19.3468   -0.3764   52.8287 C   0  0  0  0  0  0
   27.9431    1.3243   53.4822 C   0  0  0  0  0  0
   19.9042   -1.1918   53.8379 C   0  0  0  0  0  0
   18.0317   -0.4007   52.4309 O   0  0  0  0  0  0
   17.0983   -1.0888   53.2339 C   0  0  0  0  0  0
   19.5996    1.2696   51.1400 O   0  0  0  0  0  0
   20.4071    1.5583   50.0089 C   0  0  0  0  0  0
   21.5224    0.6445   52.4957 C   0  0  0  0  0  0
   28.5010    0.0524   53.3849 C   0  0  0  0  0  0
   28.4517   -2.7407   52.9749 Br  0  0  0  0  0  0
   29.0889    2.7360   53.7858 Br  0  0  0  0  0  0
   23.4888   -2.3907   56.1741 H   0  0  0  0  0  0
   24.0044    1.5761   52.8657 H   0  0  0  0  0  0
   25.6287   -1.6604   52.9020 H   0  0  0  0  0  0
   26.1989    2.5787   53.4795 H   0  0  0  0  0  0
   19.2949   -1.8969   54.3796 H   0  0  0  0  0  0
   16.0923   -0.9255   52.8492 H   0  0  0  0  0  0
   17.2841   -2.1654   53.2231 H   0  0  0  0  0  0
   17.1184   -0.7310   54.2642 H   0  0  0  0  0  0
   19.7749    1.8782   49.1836 H   0  0  0  0  0  0
   20.9734    0.6844   49.6782 H   0  0  0  0  0  0
   21.1023    2.3720   50.2227 H   0  0  0  0  0  0
   22.1480    1.3518   51.9762 H   0  0  0  0  0  0
   29.5679   -0.0898   53.4642 H   0  0  0  0  0  0
  1  2  1  0  0  0
  1  3  2  0  0  0
  1 20  1  0  0  0
  2  6  2  0  0  0
  2 15  1  0  0  0
  3  5  1  0  0  0
  3  7  1  0  0  0
  4  5  2  0  0  0
  4  6  1  0  0  0
  4 24  1  0  0  0
  7  8  1  0  0  0
  7 25  1  0  0  0
  8 10  2  0  0  0
  8 11  1  0  0  0
  9 10  1  0  0  0
  9 21  2  0  0  0
  9 22  1  0  0  0
 10 26  1  0  0  0
 11 14  2  0  0  0
 11 27  1  0  0  0
 12 13  1  0  0  0
 12 18  1  0  0  0
 12 20  2  0  0  0
 13 15  2  0  0  0
 13 16  1  0  0  0
 14 21  1  0  0  0
 14 23  1  0  0  0
 15 28  1  0  0  0
 16 17  1  0  0  0
 17 29  1  0  0  0
 17 30  1  0  0  0
 17 31  1  0  0  0
 18 19  1  0  0  0
 19 32  1  0  0  0
 19 33  1  0  0  0
 19 34  1  0  0  0
 20 35  1  0  0  0
 21 36  1  0  0  0
M  END
> <s_m_entry_id>
289

> <s_m_entry_name>
pocket_pv.100

> <s_m_Source_Path>
/home/bortolaa/Project/GT/mario-master/docking/set505protein_struct_1_site_1_set505ligs_train

> <s_m_Source_File>
pocket_pv.maegz

> <i_m_Source_File_Index>
100

> <From>
www.bindingDB.org

> <BindingDB Reactant_set_id>
5331

> <Ligand InChI>
InChI=1S/C16H13Br2N3O2/c1-22-14-6-12-13(7-15(14)23-2)19-8-20-16(12)21-11-4-9(17)3-10(18)5-11/h3-8H,1-2H3,(H,19,20,21)

> <Ligand InChI Key>
HAHWLTAMVXUGEZ-UHFFFAOYSA-N

> <BindingDB MonomerID>
3569

> <BindingDB Ligand Name>
CHEMBL92709::N-(3,5-dibromophenyl)-6,7-dimethoxyquinazolin-4-amine::PD153035 Analog 69

> <Target Name Assigned by Curator or DataSource>
Epidermal growth factor receptor

> <Target Source Organism According to Curator or DataSource>
Homo sapiens

> <Ki (nM)>


> <Kd (nM)>


> <EC50 (nM)>


> <kon (M-1-s-1)>


> <koff (s-1)>


> <pH>


> <Temp C>


> <Curation/DataSource>
Curated from the literature by BindingDB

> <Article DOI>
10.1021/bi060184f

> <PMID>


> <PubChem AID>


> <Patent Number>


> <Authors>
Bridges, AJ; Zhou, HR; Cody, DR; Rewcastle, GW; McMichael, A; Showalter, HH; Fry, DW; Kraker, AJ; Denny, WA

> <Institution>
Parke-Davis Pharmaceutical Research

> <Link to Ligand in BindingDB>
http://www.bindingdb.org/bind/chemsearch/marvin/MolStructure.jsp?monomerid=3569

> <Link to Ligand-Target Pair in BindingDB>
http://www.bindingdb.org/jsp/dbsearch/PrimarySearch_ki.jsp?energyterm=kJ/mole&tag=r21&monomerid=3569&enzyme=Epidermal+growth+factor+receptor&column=ki&startPg=0&Increment=50&submit=Search

> <Ligand HET ID in PDB>


> <PDB ID(s) for Ligand-Target Complex>


> <PubChem CID>
5328232

> <PubChem SID>
8033292

> <ChEBI ID of Ligand>


> <ChEMBL ID of Ligand>
CHEMBL92709

> <DrugBank ID of Ligand>


> <IUPHAR_GRAC ID of Ligand>


> <KEGG ID of Ligand>


> <ZINC ID of Ligand>
ZINC03815278

> <Number of Protein Chains in Target (>
1

> <BindingDB Target Chain Sequence>
MRPSGTAGAALLALLAALCPASRALEEKKVCQGTSNKLTQLGTFEDHFLSLQRMFNNCEVVLGNLEITYVQRNYDLSFLKTIQEVAGYVLIALNTVERIPLENLQIIRGNMYYENSYALAVLSNYDANKTGLKELPMRNLQEILHGAVRFSNNPALCNVESIQWRDIVSSDFLSNMSMDFQNHLGSCQKCDPSCPNGSCWGAGEENCQKLTKIICAQQCSGRCRGKSPSDCCHNQCAAGCTGPRESDCLVCRKFRDEATCKDTCPPLMLYNPTTYQMDVNPEGKYSFGATCVKKCPRNYVVTDHGSCVRACGADSYEMEEDGVRKCKKCEGPCRKVCNGIGIGEFKDSLSINATNIKHFKNCTSISGDLHILPVAFRGDSFTHTPPLDPQELDILKTVKEITGFLLIQAWPENRTDLHAFENLEIIRGRTKQHGQFSLAVVSLNITSLGLRSLKEISDGDVIISGNKNLCYANTINWKKLFGTSGQKTKIISNRGENSCKATGQVCHALCSPEGCWGPEPRDCVSCRNVSRGRECVDKCNLLEGEPREFVENSECIQCHPECLPQAMNITCTGRGPDNCIQCAHYIDGPHCVKTCPAGVMGENNTLVWKYADAGHVCHLCHPNCTYGCTGPGLEGCPTNGPKIPSIATGMVGALLLLLVVALGIGLFMRRRHIVRKRTLRRLLQERELVEPLTPSGEAPNQALLRILKETEFKKIKVLGSGAFGTVYKGLWIPEGEKVKIPVAIKELREATSPKANKEILDEAYVMASVDNPHVCRLLGICLTSTVQLITQLMPFGCLLDYVREHKDNIGSQYLLNWCVQIAKGMNYLEDRRLVHRDLAARNVLVKTPQHVKITDFGLAKLLGAEEKEYHAEGGKVPIKWMALESILHRIYTHQSDVWSYGVTVWELMTFGSKPYDGIPASEISSILEKGERLPQPPICTIDVYMIMVKCWMIDADSRPKFRELIIEFSKMARDPQRYLVIQGDERMHLPSPTDSNFYRALMDEEDMDDVVDADEYLIPQQGFFSSPSTSRTPLLSSLSATSNNSTVACIDRNGLQSCPIKEDSFLQRYSSDPTGALTEDSIDDTFLPVPEYINQSVPKRPAGSVQNPVYHNQPLNPAPSRDPHYQDPHSTAVGNPEYLNTVQPTCVNSTFDSPAHWAQKGSHQISLDNPDYQQDFFPKEAKPNGIFKGSTAENAEYLRVAPQSSEFIGA

> <PDB ID(s) of Target Chain>
1IVO,1M14,1M17,1MOX,1XKK,1Z9I,2GS2,2GS6,2ITW,2ITX,2ITY,2J5E,2J5F,2J6M,2RF9,2RGP,3B2V,3BEL,3GOP,3POZ,3QWQ,3VJO,3W2O,3W2P,3W2Q,3W2R,3W2S,3W32,3W33,4G5J,4I23,4JQ7,4JQ8,4JR3,4JRV,4KRO,4LI5,4RJ4,4RJ5,4RJ6,4RJ7,4RJ8,4TKS,4UIP,4UV7,4WKQ,4WRG,4ZAU,5C8K,5C8M,5C8N,5CAL,5CAN,5CAO,5CAP,5CAQ,5CAS,5CAU,5CAV,5EDP,5EDQ,5EDR,5EM5,5EM6,5EM7,5EM8,5FED,5GNK,5HCX,5HCY,5HCZ,5HIB,5HIC,5UGB,5WB7,5WB8,5Y25,6S89,6S8A

> <UniProt (SwissProt) Recommended Name of Target Chain>
Epidermal growth factor receptor

> <UniProt (SwissProt) Entry Name of Target Chain>
EGFR_HUMAN

> <UniProt (SwissProt) Primary ID of Target Chain>
P00533

> <UniProt (SwissProt) Secondary ID(s) of Target Chain>
O00688,O00732,P06268,Q14225,Q68GS5,Q92795,Q9BZS2,Q9GZX1,Q9H2C9,Q9H3C9,Q9UMD7,Q9UMD8,Q9UMG5

> <UniProt (SwissProt) Alternative ID(s) of Target Chain>


> <UniProt (TrEMBL) Submitted Name of Target Chain>


> <UniProt (TrEMBL) Entry Name of Target Chain>


> <UniProt (TrEMBL) Primary ID of Target Chain>


> <UniProt (TrEMBL) Secondary ID(s) of Target Chain>


> <UniProt (TrEMBL) Alternative ID(s) of Target Chain>


> <training label>
6.94692

> <i_lp_mmshare_version>
54117

> <s_epik_input>
W0NIM11PYyhbY0hdMSljKE9bQ0gzXSlbY0hdYyhjMTIpbltjSF1uYzJbTkhdYzNbY0hdYyhCcilbY0hdYyhCcilbY0hdMw==

> <s_epik_cmdline>
J2VwaWtfcHl0aG9uJywgJy1waHQnLCAnMC4xJywgJy1waCcsICc3LjQnLCAnLXRuJywgJzgnLCAnLW1hJywgJzIwMCcsICctaW1hZScsICc8aW5maWxlLm1hZT4nLCAnLW9tYWUnLCAnPG91dGZpbGUubWFlPic=

> <r_lp_tautomer_probability>
1

> <r_epik_Ionization_Penalty>
  0.0006

> <r_epik_Ionization_Penalty_Charging>
  0.0000

> <r_epik_Ionization_Penalty_Neutral>
  0.0006

> <r_epik_State_Penalty>
  0.0000

> <r_epik_Charging_Adjusted_Penalty>
0

> <i_epik_Tot_Q>
0

> <i_epik_Tot_abs_Q>
0

> <i_f3d_flags>
0

> <s_lp_Force_Field>
OPLS_2005

> <r_lp_Energy>
18.686079

> <b_lp_Chiralities_Consistent>
1

> <s_lp_Variant>
BindingDB_3569_mol_1-1

> <s_i_glide_gridfile>
struct_1_site_1

> <i_i_glide_lignum>
149

> <i_i_glide_rotatable_bonds>
4

> <r_i_docking_score>
-7.67618229923489

> <r_i_glide_ligand_efficiency>
-0.333747056488473

> <r_i_glide_ligand_efficiency_sa>
-0.949132232578225

> <r_i_glide_ligand_efficiency_ln>
-1.85617048372784

> <r_i_glide_gscore>
-7.67618229923489

> <r_i_glide_lipo>
-3.2378847991836

> <r_i_glide_hbond>
-0.32

> <r_i_glide_metal>
0

> <r_i_glide_rewards>
-1.56406974965122

> <r_i_glide_evdw>
-43.4487266540527

> <r_i_glide_ecoul>
-3.9252462387085

> <r_i_glide_erotb>
0.206995518108842

> <r_i_glide_esite>
0

> <r_i_glide_emodel>
-44.7305060911474

> <r_i_glide_energy>
-47.3739728927612

> <r_i_glide_einternal>
3.29394245147705

> <i_i_glide_confnum>
3

> <i_i_glide_posenum>
275

> <r_i_glide_eff_state_penalty>
0

> <IC50 (nM)>
113

> <r_glide_shape_similarity>
0.778566300868988

> <s_m_subgroup_title>
505 training

> <s_m_subgroupid>
pocket_pv

> <b_m_subgroup_collapsed>
0

$$$$
BindingDB_3559_mol_1
                    3D
 Schrodinger Suite 2021-2.
 36 38  0  0  1  0            999 V2000
   21.4707    0.6354   52.4840 C   0  0  0  0  0  0
   19.9190   -1.2419   53.8590 C   0  0  0  0  0  0
   22.0628   -0.1643   53.4923 C   0  0  0  0  0  0
   21.2769   -1.1182   54.1809 C   0  0  0  0  0  0
   23.4314   -0.0939   53.8643 C   0  0  0  0  0  0
   23.1003   -1.7338   55.4101 C   0  0  0  0  0  0
   23.9367   -0.8937   54.8179 N   0  0  0  0  0  0
   21.8104   -1.8951   55.1390 N   0  0  0  0  0  0
   24.2940    0.8444   53.2865 N   0  0  0  0  0  0
   23.8086    1.5819   52.7979 H   0  0  0  0  0  0
   25.6853    0.9452   53.3489 C   0  0  0  0  0  0
   27.6664    2.3590   53.4219 C   0  0  0  0  0  0
   26.2714    2.2234   53.3715 C   0  0  0  0  0  0
   26.5161   -0.1908   53.3364 C   0  0  0  0  0  0
   28.4881    1.2237   53.4372 C   0  0  0  0  0  0
   20.1037    0.4856   52.1670 C   0  0  0  0  0  0
   19.3308   -0.4575   52.8671 C   0  0  0  0  0  0
   19.5727    1.2990   51.1976 O   0  0  0  0  0  0
   18.2087    1.1328   50.8540 C   0  0  0  0  0  0
   22.2169    1.5894   51.8360 O   0  0  0  0  0  0
   22.1885    1.5716   50.4135 C   0  0  0  0  0  0
   27.9104   -0.0507   53.3863 C   0  0  0  0  0  0
   29.0166   -1.5885   53.3743 Br  0  0  0  0  0  0
   19.3187   -1.9556   54.4015 H   0  0  0  0  0  0
   23.5172   -2.3676   56.1785 H   0  0  0  0  0  0
   28.1022    3.3456   53.4428 H   0  0  0  0  0  0
   25.6539    3.1120   53.3624 H   0  0  0  0  0  0
   26.0891   -1.1813   53.2946 H   0  0  0  0  0  0
   29.5605    1.3347   53.4804 H   0  0  0  0  0  0
   18.2835   -0.6065   52.6698 H   0  0  0  0  0  0
   17.9591    1.8273   50.0529 H   0  0  0  0  0  0
   18.0063    0.1243   50.4863 H   0  0  0  0  0  0
   17.5529    1.3520   51.6953 H   0  0  0  0  0  0
   23.1238    1.9852   50.0446 H   0  0  0  0  0  0
   21.3907    2.1880   49.9944 H   0  0  0  0  0  0
   22.1047    0.5529   50.0199 H   0  0  0  0  0  0
  1  3  1  0  0  0
  1 16  2  0  0  0
  1 20  1  0  0  0
  2  4  1  0  0  0
  2 17  2  0  0  0
  2 24  1  0  0  0
  3  4  1  0  0  0
  3  5  2  0  0  0
  4  8  2  0  0  0
  5  7  1  0  0  0
  5  9  1  0  0  0
  6  7  2  0  0  0
  6  8  1  0  0  0
  6 25  1  0  0  0
  9 10  1  0  0  0
  9 11  1  0  0  0
 11 13  2  0  0  0
 11 14  1  0  0  0
 12 13  1  0  0  0
 12 15  2  0  0  0
 12 26  1  0  0  0
 13 27  1  0  0  0
 14 22  2  0  0  0
 14 28  1  0  0  0
 15 22  1  0  0  0
 15 29  1  0  0  0
 16 17  1  0  0  0
 16 18  1  0  0  0
 17 30  1  0  0  0
 18 19  1  0  0  0
 19 31  1  0  0  0
 19 32  1  0  0  0
 19 33  1  0  0  0
 20 21  1  0  0  0
 21 34  1  0  0  0
 21 35  1  0  0  0
 21 36  1  0  0  0
 22 23  1  0  0  0
M  END
> <s_m_entry_id>
290

> <s_m_entry_name>
pocket_pv.101

> <s_m_Source_Path>
/home/bortolaa/Project/GT/mario-master/docking/set505protein_struct_1_site_1_set505ligs_train

> <s_m_Source_File>
pocket_pv.maegz

> <i_m_Source_File_Index>
101

> <From>
www.bindingDB.org

> <BindingDB Reactant_set_id>
5321

> <Ligand InChI>
InChI=1S/C16H14BrN3O2/c1-21-13-7-6-12-14(15(13)22-2)16(19-9-18-12)20-11-5-3-4-10(17)8-11/h3-9H,1-2H3,(H,18,19,20)

> <Ligand InChI Key>
YNRSJGOUWDDUMY-UHFFFAOYSA-N

> <BindingDB MonomerID>
3559

> <BindingDB Ligand Name>
CHEMBL96627::N-(3-bromophenyl)-5,6-dimethoxyquinazolin-4-amine::PD153035 Analog 59

> <Target Name Assigned by Curator or DataSource>
Epidermal growth factor receptor

> <Target Source Organism According to Curator or DataSource>
Homo sapiens

> <Ki (nM)>


> <IC50 (nM)>
1367

> <Kd (nM)>


> <EC50 (nM)>


> <kon (M-1-s-1)>


> <koff (s-1)>


> <pH>


> <Temp C>


> <Curation/DataSource>
Curated from the literature by BindingDB

> <Article DOI>
10.1021/bi060184f

> <PMID>


> <PubChem AID>


> <Patent Number>


> <Authors>
Bridges, AJ; Zhou, HR; Cody, DR; Rewcastle, GW; McMichael, A; Showalter, HH; Fry, DW; Kraker, AJ; Denny, WA

> <Institution>
Parke-Davis Pharmaceutical Research

> <Link to Ligand in BindingDB>
http://www.bindingdb.org/bind/chemsearch/marvin/MolStructure.jsp?monomerid=3559

> <Link to Ligand-Target Pair in BindingDB>
http://www.bindingdb.org/jsp/dbsearch/PrimarySearch_ki.jsp?energyterm=kJ/mole&tag=r21&monomerid=3559&enzyme=Epidermal+growth+factor+receptor&column=ki&startPg=0&Increment=50&submit=Search

> <Ligand HET ID in PDB>


> <PDB ID(s) for Ligand-Target Complex>


> <PubChem CID>
5328223

> <PubChem SID>
8033282

> <ChEBI ID of Ligand>


> <ChEMBL ID of Ligand>
CHEMBL96627

> <DrugBank ID of Ligand>


> <IUPHAR_GRAC ID of Ligand>


> <KEGG ID of Ligand>


> <ZINC ID of Ligand>
ZINC13745562

> <Number of Protein Chains in Target (>
1

> <BindingDB Target Chain Sequence>
MRPSGTAGAALLALLAALCPASRALEEKKVCQGTSNKLTQLGTFEDHFLSLQRMFNNCEVVLGNLEITYVQRNYDLSFLKTIQEVAGYVLIALNTVERIPLENLQIIRGNMYYENSYALAVLSNYDANKTGLKELPMRNLQEILHGAVRFSNNPALCNVESIQWRDIVSSDFLSNMSMDFQNHLGSCQKCDPSCPNGSCWGAGEENCQKLTKIICAQQCSGRCRGKSPSDCCHNQCAAGCTGPRESDCLVCRKFRDEATCKDTCPPLMLYNPTTYQMDVNPEGKYSFGATCVKKCPRNYVVTDHGSCVRACGADSYEMEEDGVRKCKKCEGPCRKVCNGIGIGEFKDSLSINATNIKHFKNCTSISGDLHILPVAFRGDSFTHTPPLDPQELDILKTVKEITGFLLIQAWPENRTDLHAFENLEIIRGRTKQHGQFSLAVVSLNITSLGLRSLKEISDGDVIISGNKNLCYANTINWKKLFGTSGQKTKIISNRGENSCKATGQVCHALCSPEGCWGPEPRDCVSCRNVSRGRECVDKCNLLEGEPREFVENSECIQCHPECLPQAMNITCTGRGPDNCIQCAHYIDGPHCVKTCPAGVMGENNTLVWKYADAGHVCHLCHPNCTYGCTGPGLEGCPTNGPKIPSIATGMVGALLLLLVVALGIGLFMRRRHIVRKRTLRRLLQERELVEPLTPSGEAPNQALLRILKETEFKKIKVLGSGAFGTVYKGLWIPEGEKVKIPVAIKELREATSPKANKEILDEAYVMASVDNPHVCRLLGICLTSTVQLITQLMPFGCLLDYVREHKDNIGSQYLLNWCVQIAKGMNYLEDRRLVHRDLAARNVLVKTPQHVKITDFGLAKLLGAEEKEYHAEGGKVPIKWMALESILHRIYTHQSDVWSYGVTVWELMTFGSKPYDGIPASEISSILEKGERLPQPPICTIDVYMIMVKCWMIDADSRPKFRELIIEFSKMARDPQRYLVIQGDERMHLPSPTDSNFYRALMDEEDMDDVVDADEYLIPQQGFFSSPSTSRTPLLSSLSATSNNSTVACIDRNGLQSCPIKEDSFLQRYSSDPTGALTEDSIDDTFLPVPEYINQSVPKRPAGSVQNPVYHNQPLNPAPSRDPHYQDPHSTAVGNPEYLNTVQPTCVNSTFDSPAHWAQKGSHQISLDNPDYQQDFFPKEAKPNGIFKGSTAENAEYLRVAPQSSEFIGA

> <PDB ID(s) of Target Chain>
1IVO,1M14,1M17,1MOX,1XKK,1Z9I,2GS2,2GS6,2ITW,2ITX,2ITY,2J5E,2J5F,2J6M,2RF9,2RGP,3B2V,3BEL,3GOP,3POZ,3QWQ,3VJO,3W2O,3W2P,3W2Q,3W2R,3W2S,3W32,3W33,4G5J,4I23,4JQ7,4JQ8,4JR3,4JRV,4KRO,4LI5,4RJ4,4RJ5,4RJ6,4RJ7,4RJ8,4TKS,4UIP,4UV7,4WKQ,4WRG,4ZAU,5C8K,5C8M,5C8N,5CAL,5CAN,5CAO,5CAP,5CAQ,5CAS,5CAU,5CAV,5EDP,5EDQ,5EDR,5EM5,5EM6,5EM7,5EM8,5FED,5GNK,5HCX,5HCY,5HCZ,5HIB,5HIC,5UGB,5WB7,5WB8,5Y25,6S89,6S8A

> <UniProt (SwissProt) Recommended Name of Target Chain>
Epidermal growth factor receptor

> <UniProt (SwissProt) Entry Name of Target Chain>
EGFR_HUMAN

> <UniProt (SwissProt) Primary ID of Target Chain>
P00533

> <UniProt (SwissProt) Secondary ID(s) of Target Chain>
O00688,O00732,P06268,Q14225,Q68GS5,Q92795,Q9BZS2,Q9GZX1,Q9H2C9,Q9H3C9,Q9UMD7,Q9UMD8,Q9UMG5

> <UniProt (SwissProt) Alternative ID(s) of Target Chain>


> <UniProt (TrEMBL) Submitted Name of Target Chain>


> <UniProt (TrEMBL) Entry Name of Target Chain>


> <UniProt (TrEMBL) Primary ID of Target Chain>


> <UniProt (TrEMBL) Secondary ID(s) of Target Chain>


> <UniProt (TrEMBL) Alternative ID(s) of Target Chain>


> <training label>
5.86423

> <i_lp_mmshare_version>
54117

> <s_epik_input>
W0NIM11PYzFjKE9bQ0gzXSlbY0hdW2NIXWMoYzEyKW5bY0hdbmMyW05IXWMzW2NIXVtjSF1bY0hdYyhCcilbY0hdMw==

> <s_epik_cmdline>
J2VwaWtfcHl0aG9uJywgJy1waHQnLCAnMC4xJywgJy1waCcsICc3LjQnLCAnLXRuJywgJzgnLCAnLW1hJywgJzIwMCcsICctaW1hZScsICc8aW5maWxlLm1hZT4nLCAnLW9tYWUnLCAnPG91dGZpbGUubWFlPic=

> <r_lp_tautomer_probability>
1

> <r_epik_Ionization_Penalty>
  0.0006

> <r_epik_Ionization_Penalty_Charging>
  0.0000

> <r_epik_Ionization_Penalty_Neutral>
  0.0006

> <r_epik_State_Penalty>
  0.0000

> <r_epik_Charging_Adjusted_Penalty>
0

> <i_epik_Tot_Q>
0

> <i_epik_Tot_abs_Q>
0

> <i_f3d_flags>
0

> <s_lp_Force_Field>
OPLS_2005

> <r_lp_Energy>
26.993336

> <b_lp_Chiralities_Consistent>
1

> <s_lp_Variant>
BindingDB_3559_mol_1-1

> <s_i_glide_gridfile>
struct_1_site_1

> <i_i_glide_lignum>
60

> <i_i_glide_rotatable_bonds>
4

> <r_i_docking_score>
-7.66487801752753

> <r_i_glide_ligand_efficiency>
-0.348403546251251

> <r_i_glide_ligand_efficiency_sa>
-0.976240438529953

> <r_i_glide_ligand_efficiency_ln>
-1.87357577070252

> <r_i_glide_gscore>
-7.66487801752753

> <r_i_glide_lipo>
-2.86500227726243

> <r_i_glide_hbond>
-0.32

> <r_i_glide_metal>
0

> <r_i_glide_rewards>
-2.11511373833865

> <r_i_glide_evdw>
-39.174388885498

> <r_i_glide_ecoul>
-4.67757177352905

> <r_i_glide_erotb>
0.295593208377807

> <r_i_glide_esite>
0

> <r_i_glide_emodel>
-41.077283214013

> <r_i_glide_energy>
-43.8519606590271

> <r_i_glide_einternal>
1.23891544342041

> <i_i_glide_confnum>
2

> <i_i_glide_posenum>
13

> <r_i_glide_eff_state_penalty>
0

> <r_glide_shape_similarity>
0.762565553188324

> <s_m_subgroup_title>
505 training

> <s_m_subgroupid>
pocket_pv

> <b_m_subgroup_collapsed>
0

$$$$
BindingDB_50307774_mol_1
                    3D
 Schrodinger Suite 2021-2.
 55 57  0  0  1  0            999 V2000
   25.1406   -0.1681   54.1111 C   0  0  0  0  0  0
   25.0339   -0.8653   55.3348 C   0  0  0  0  0  0
   23.8089   -1.4705   55.6869 C   0  0  0  0  0  0
   23.9537    0.0953   53.3541 C   0  0  0  0  0  0
   22.7044   -0.4382   53.7818 C   0  0  0  0  0  0
   22.6582   -1.2879   54.9192 C   0  0  0  0  0  0
   21.5295   -1.9163   55.2862 N   0  0  0  0  0  0
   20.4365   -1.6729   54.5737 C   0  0  0  0  0  0
   20.3409   -0.8605   53.5436 N   0  0  0  0  0  0
   21.4506   -0.2111   53.1442 C   0  0  0  0  0  0
   26.4313    0.2141   53.7810 O   0  0  0  0  0  0
   26.1415   -0.8652   56.1637 O   0  0  0  0  0  0
   25.9460   -1.0942   57.5609 C   0  0  0  0  0  0
   21.3107    0.6861   52.0773 N   0  0  0  0  0  0
   20.1646    1.0475   51.3377 C   0  0  0  0  0  0
   20.3925    1.7314   50.1155 C   0  0  0  0  0  0
   19.3083    2.1766   49.3253 C   0  0  0  0  0  0
   17.9818    1.9222   49.7292 C   0  0  0  0  0  0
   17.7371    1.2323   50.9387 C   0  0  0  0  0  0
   18.8183    0.8153   51.7453 C   0  0  0  0  0  0
   26.6526    1.1086   52.7155 C   0  0  0  0  0  0
   26.0997    2.4846   53.1126 C   0  0  0  0  0  0
   26.0778    3.5243   51.9821 C   0  0  0  0  0  0
   25.4166    3.1720   50.6289 C   0  0  0  0  0  0
   25.5179    4.3302   49.5974 C   0  0  0  0  0  0
   24.6849    5.5912   49.9268 C   0  0  0  0  0  0
   25.0885    6.3515   50.9710 N   0  0  0  0  0  0
   23.7399    5.8948   49.1917 O   0  0  0  0  0  0
   24.6827    7.7158   50.9743 O   0  0  0  0  0  0
   19.5508    2.9013   48.0917 C   0  0  0  0  0  0
   19.7406    3.5201   47.0567 C   0  0  0  0  0  0
   23.7410   -2.0701   56.5728 H   0  0  0  0  0  0
   23.9996    0.6751   52.4444 H   0  0  0  0  0  0
   19.5385   -2.1951   54.8736 H   0  0  0  0  0  0
   26.8030   -0.7354   58.1144 H   0  0  0  0  0  0
   25.0624   -0.5841   57.9513 H   0  0  0  0  0  0
   25.8884   -2.1578   57.7667 H   0  0  0  0  0  0
   22.1722    1.1094   51.7702 H   0  0  0  0  0  0
   21.4021    1.9378   49.7925 H   0  0  0  0  0  0
   17.1488    2.2522   49.1230 H   0  0  0  0  0  0
   16.7232    1.0466   51.2547 H   0  0  0  0  0  0
   18.5417    0.3398   52.6657 H   0  0  0  0  0  0
   27.7258    1.1865   52.5440 H   0  0  0  0  0  0
   26.2047    0.7166   51.8003 H   0  0  0  0  0  0
   25.0761    2.4162   53.4772 H   0  0  0  0  0  0
   26.6829    2.8770   53.9485 H   0  0  0  0  0  0
   25.4825    4.3333   52.3879 H   0  0  0  0  0  0
   27.0808    3.9002   51.7908 H   0  0  0  0  0  0
   25.9343    2.3160   50.1971 H   0  0  0  0  0  0
   24.3752    2.8802   50.7740 H   0  0  0  0  0  0
   26.5602    4.6316   49.4713 H   0  0  0  0  0  0
   25.2025    3.9683   48.6233 H   0  0  0  0  0  0
   25.8891    6.2029   51.5884 H   0  0  0  0  0  0
   24.9914    8.0264   51.8213 H   0  0  0  0  0  0
   19.8917    4.0689   46.1558 H   0  0  0  0  0  0
  1  2  2  0  0  0
  1  4  1  0  0  0
  1 11  1  0  0  0
  2  3  1  0  0  0
  2 12  1  0  0  0
  3  6  2  0  0  0
  3 32  1  0  0  0
  4  5  2  0  0  0
  4 33  1  0  0  0
  5  6  1  0  0  0
  5 10  1  0  0  0
  6  7  1  0  0  0
  7  8  2  0  0  0
  8  9  1  0  0  0
  8 34  1  0  0  0
  9 10  2  0  0  0
 10 14  1  0  0  0
 11 21  1  0  0  0
 12 13  1  0  0  0
 13 35  1  0  0  0
 13 36  1  0  0  0
 13 37  1  0  0  0
 14 15  1  0  0  0
 14 38  1  0  0  0
 15 16  2  0  0  0
 15 20  1  0  0  0
 16 17  1  0  0  0
 16 39  1  0  0  0
 17 18  2  0  0  0
 17 30  1  0  0  0
 18 19  1  0  0  0
 18 40  1  0  0  0
 19 20  2  0  0  0
 19 41  1  0  0  0
 20 42  1  0  0  0
 21 22  1  0  0  0
 21 43  1  0  0  0
 21 44  1  0  0  0
 22 23  1  0  0  0
 22 45  1  0  0  0
 22 46  1  0  0  0
 23 24  1  0  0  0
 23 47  1  0  0  0
 23 48  1  0  0  0
 24 25  1  0  0  0
 24 49  1  0  0  0
 24 50  1  0  0  0
 25 26  1  0  0  0
 25 51  1  0  0  0
 25 52  1  0  0  0
 26 27  1  0  0  0
 26 28  2  0  0  0
 27 29  1  0  0  0
 27 53  1  0  0  0
 29 54  1  0  0  0
 30 31  3  0  0  0
 31 55  1  0  0  0
M  END
> <s_m_entry_id>
291

> <s_m_entry_name>
pocket_pv.102

> <s_m_Source_Path>
/home/bortolaa/Project/GT/mario-master/docking/set505protein_struct_1_site_1_set505ligs_train

> <s_m_Source_File>
pocket_pv.maegz

> <i_m_Source_File_Index>
102

> <From>
www.bindingDB.org

> <BindingDB Reactant_set_id>
50552100

> <Ligand InChI>
InChI=1S/C23H24N4O4/c1-3-16-8-7-9-17(12-16)26-23-18-13-21(20(30-2)14-19(18)24-15-25-23)31-11-6-4-5-10-22(28)27-29/h1,7-9,12-15,29H,4-6,10-11H2,2H3,(H,27,28)(H,24,25,26)

> <Ligand InChI Key>
XFDYLGGJRSOHKI-UHFFFAOYSA-N

> <BindingDB MonomerID>
50307774

> <BindingDB Ligand Name>
6-(4-(3-Ethynylphenylamino)-7-methoxyquinazolin-6-yloxy)-N-hydroxyhexanamide::CHEMBL598164

> <Target Name Assigned by Curator or DataSource>
Epidermal growth factor receptor

> <Target Source Organism According to Curator or DataSource>
Homo sapiens

> <Ki (nM)>


> <Kd (nM)>


> <EC50 (nM)>


> <kon (M-1-s-1)>


> <koff (s-1)>


> <pH>


> <Temp C>


> <Curation/DataSource>
ChEMBL

> <Article DOI>
10.1021/jm901453q

> <PubChem AID>


> <Patent Number>


> <Authors>
Cai, X; Zhai, HX; Wang, J; Forrester, J; Qu, H; Yin, L; Lai, CJ; Bao, R; Qian, C

> <Institution>
Curis Inc

> <Link to Ligand in BindingDB>
http://www.bindingdb.org/bind/chemsearch/marvin/MolStructure.jsp?monomerid=50307774

> <Link to Ligand-Target Pair in BindingDB>
http://www.bindingdb.org/jsp/dbsearch/PrimarySearch_ki.jsp?energyterm=kJ/mole&tag=r21&monomerid=50307774&enzyme=Epidermal+growth+factor+receptor&column=ki&startPg=0&Increment=50&submit=Search

> <Ligand HET ID in PDB>


> <PDB ID(s) for Ligand-Target Complex>


> <PubChem CID>
24944935

> <PubChem SID>
104162135

> <ChEBI ID of Ligand>


> <ChEMBL ID of Ligand>
CHEMBL598164

> <DrugBank ID of Ligand>


> <IUPHAR_GRAC ID of Ligand>


> <KEGG ID of Ligand>


> <ZINC ID of Ligand>
ZINC45364546

> <Number of Protein Chains in Target (>
1

> <BindingDB Target Chain Sequence>
MRPSGTAGAALLALLAALCPASRALEEKKVCQGTSNKLTQLGTFEDHFLSLQRMFNNCEVVLGNLEITYVQRNYDLSFLKTIQEVAGYVLIALNTVERIPLENLQIIRGNMYYENSYALAVLSNYDANKTGLKELPMRNLQEILHGAVRFSNNPALCNVESIQWRDIVSSDFLSNMSMDFQNHLGSCQKCDPSCPNGSCWGAGEENCQKLTKIICAQQCSGRCRGKSPSDCCHNQCAAGCTGPRESDCLVCRKFRDEATCKDTCPPLMLYNPTTYQMDVNPEGKYSFGATCVKKCPRNYVVTDHGSCVRACGADSYEMEEDGVRKCKKCEGPCRKVCNGIGIGEFKDSLSINATNIKHFKNCTSISGDLHILPVAFRGDSFTHTPPLDPQELDILKTVKEITGFLLIQAWPENRTDLHAFENLEIIRGRTKQHGQFSLAVVSLNITSLGLRSLKEISDGDVIISGNKNLCYANTINWKKLFGTSGQKTKIISNRGENSCKATGQVCHALCSPEGCWGPEPRDCVSCRNVSRGRECVDKCNLLEGEPREFVENSECIQCHPECLPQAMNITCTGRGPDNCIQCAHYIDGPHCVKTCPAGVMGENNTLVWKYADAGHVCHLCHPNCTYGCTGPGLEGCPTNGPKIPSIATGMVGALLLLLVVALGIGLFMRRRHIVRKRTLRRLLQERELVEPLTPSGEAPNQALLRILKETEFKKIKVLGSGAFGTVYKGLWIPEGEKVKIPVAIKELREATSPKANKEILDEAYVMASVDNPHVCRLLGICLTSTVQLITQLMPFGCLLDYVREHKDNIGSQYLLNWCVQIAKGMNYLEDRRLVHRDLAARNVLVKTPQHVKITDFGLAKLLGAEEKEYHAEGGKVPIKWMALESILHRIYTHQSDVWSYGVTVWELMTFGSKPYDGIPASEISSILEKGERLPQPPICTIDVYMIMVKCWMIDADSRPKFRELIIEFSKMARDPQRYLVIQGDERMHLPSPTDSNFYRALMDEEDMDDVVDADEYLIPQQGFFSSPSTSRTPLLSSLSATSNNSTVACIDRNGLQSCPIKEDSFLQRYSSDPTGALTEDSIDDTFLPVPEYINQSVPKRPAGSVQNPVYHNQPLNPAPSRDPHYQDPHSTAVGNPEYLNTVQPTCVNSTFDSPAHWAQKGSHQISLDNPDYQQDFFPKEAKPNGIFKGSTAENAEYLRVAPQSSEFIGA

> <PDB ID(s) of Target Chain>
1IVO,1M14,1M17,1MOX,1XKK,1Z9I,2GS2,2GS6,2ITW,2ITX,2ITY,2J5E,2J5F,2J6M,2RF9,2RGP,3B2V,3BEL,3GOP,3POZ,3QWQ,3VJO,3W2O,3W2P,3W2Q,3W2R,3W2S,3W32,3W33,4G5J,4I23,4JQ7,4JQ8,4JR3,4JRV,4KRO,4LI5,4RJ4,4RJ5,4RJ6,4RJ7,4RJ8,4TKS,4UIP,4UV7,4WKQ,4WRG,4ZAU,5C8K,5C8M,5C8N,5CAL,5CAN,5CAO,5CAP,5CAQ,5CAS,5CAU,5CAV,5EDP,5EDQ,5EDR,5EM5,5EM6,5EM7,5EM8,5FED,5GNK,5HCX,5HCY,5HCZ,5HIB,5HIC,5UGB,5WB7,5WB8,5Y25,6S89,6S8A

> <UniProt (SwissProt) Recommended Name of Target Chain>
Epidermal growth factor receptor

> <UniProt (SwissProt) Entry Name of Target Chain>
EGFR_HUMAN

> <UniProt (SwissProt) Primary ID of Target Chain>
P00533

> <UniProt (SwissProt) Secondary ID(s) of Target Chain>
O00688,O00732,P06268,Q14225,Q68GS5,Q92795,Q9BZS2,Q9GZX1,Q9H2C9,Q9H3C9,Q9UMD7,Q9UMD8,Q9UMG5

> <UniProt (SwissProt) Alternative ID(s) of Target Chain>


> <UniProt (TrEMBL) Submitted Name of Target Chain>


> <UniProt (TrEMBL) Entry Name of Target Chain>


> <UniProt (TrEMBL) Primary ID of Target Chain>


> <UniProt (TrEMBL) Secondary ID(s) of Target Chain>


> <UniProt (TrEMBL) Alternative ID(s) of Target Chain>


> <training label>
8.33724

> <i_lp_mmshare_version>
54117

> <s_epik_input>
W09IXVtOSF1DKD1PKVtDSDJdW0NIMl1bQ0gyXVtDSDJdW0NIMl1PYyhbY0hdMSljKE9bQ0gzXSlbY0hdYyhjMTIpbltjSF1uYzJbTkhdYzNbY0hdYyhDI1tDSF0pW2NIXVtjSF1bY0hdMw==

> <s_epik_cmdline>
J2VwaWtfcHl0aG9uJywgJy1waHQnLCAnMC4xJywgJy1waCcsICc3LjQnLCAnLXRuJywgJzgnLCAnLW1hJywgJzIwMCcsICctaW1hZScsICc8aW5maWxlLm1hZT4nLCAnLW9tYWUnLCAnPG91dGZpbGUubWFlPic=

> <r_lp_tautomer_probability>
1

> <r_epik_Ionization_Penalty>
  0.0095

> <r_epik_Ionization_Penalty_Charging>
  0.0000

> <r_epik_Ionization_Penalty_Neutral>
  0.0095

> <r_epik_State_Penalty>
  0.0000

> <r_epik_Charging_Adjusted_Penalty>
0

> <i_epik_Tot_Q>
0

> <i_epik_Tot_abs_Q>
0

> <i_f3d_flags>
0

> <s_lp_Force_Field>
OPLS_2005

> <r_lp_Energy>
28.956965

> <b_lp_Chiralities_Consistent>
1

> <s_lp_Variant>
BindingDB_50307774_mol_1-1

> <s_i_glide_gridfile>
struct_1_site_1

> <i_i_glide_lignum>
257

> <i_i_glide_rotatable_bonds>
13

> <r_i_docking_score>
-7.66345701514758

> <r_i_glide_ligand_efficiency>
-0.247208290811212

> <r_i_glide_ligand_efficiency_sa>
-0.77657534097617

> <r_i_glide_ligand_efficiency_ln>
-1.72834441366806

> <r_i_glide_gscore>
-7.66345701514758

> <r_i_glide_lipo>
-2.24239692541655

> <r_i_glide_hbond>
-0.8

> <r_i_glide_metal>
0

> <r_i_glide_rewards>
-1.5476487667316

> <r_i_glide_evdw>
-32.5954856872559

> <r_i_glide_ecoul>
-16.8899841308594

> <r_i_glide_erotb>
1.23152929415498

> <r_i_glide_esite>
-0.141668713162704

> <r_i_glide_emodel>
-33.8140559268036

> <r_i_glide_energy>
-49.4854698181152

> <r_i_glide_einternal>
10.8496236801147

> <i_i_glide_confnum>
829

> <i_i_glide_posenum>
319

> <r_i_glide_eff_state_penalty>
0

> <IC50 (nM)>
4.6

> <PMID>
20143778

> <s_epik_Chemistry_Notes>
This compound has a N-S or N-O group and may undergo hydrolysis at high or low pH.

> <r_glide_shape_similarity>
0.589486300945282

> <s_m_subgroup_title>
505 training

> <s_m_subgroupid>
pocket_pv

> <b_m_subgroup_collapsed>
0

$$$$
BindingDB_3554_mol_1
                    3D
 Schrodinger Suite 2021-2.
 31 34  0  0  1  0            999 V2000
   21.5201    0.6540   52.4921 C   0  0  0  0  0  0
   19.9105   -1.2257   53.8526 C   0  0  0  0  0  0
   22.0773   -0.1652   53.5001 C   0  0  0  0  0  0
   21.2742   -1.1152   54.1833 C   0  0  0  0  0  0
   23.4378   -0.0925   53.8657 C   0  0  0  0  0  0
   23.0970   -1.7271   55.4096 C   0  0  0  0  0  0
   23.9368   -0.8841   54.8260 N   0  0  0  0  0  0
   21.8077   -1.8923   55.1405 N   0  0  0  0  0  0
   24.2903    0.8488   53.2741 N   0  0  0  0  0  0
   23.8240    1.6227   52.8332 H   0  0  0  0  0  0
   25.6847    0.9499   53.3429 C   0  0  0  0  0  0
   27.6719    2.3620   53.4256 C   0  0  0  0  0  0
   26.2751    2.2253   53.3706 C   0  0  0  0  0  0
   26.5149   -0.1864   53.3356 C   0  0  0  0  0  0
   28.4913    1.2265   53.4372 C   0  0  0  0  0  0
   27.9112   -0.0479   53.3833 C   0  0  0  0  0  0
   29.0139   -1.5891   53.3745 Br  0  0  0  0  0  0
   20.1660    0.4970   52.1861 C   0  0  0  0  0  0
   19.3814   -0.4066   52.8560 C   0  0  0  0  0  0
   18.1110   -0.3485   52.3985 O   0  0  0  0  0  0
   19.4242    1.1481   51.2651 O   0  0  0  0  0  0
   18.1247    0.6236   51.3912 C   0  0  0  0  0  0
   22.1066    1.3800   51.9480 H   0  0  0  0  0  0
   19.2815   -1.9329   54.3713 H   0  0  0  0  0  0
   23.5117   -2.3677   56.1732 H   0  0  0  0  0  0
   28.1195    3.3464   53.4558 H   0  0  0  0  0  0
   25.6591    3.1136   53.3571 H   0  0  0  0  0  0
   26.0868   -1.1771   53.2902 H   0  0  0  0  0  0
   29.5661    1.3445   53.4789 H   0  0  0  0  0  0
   17.4254    1.4202   51.6442 H   0  0  0  0  0  0
   17.8204    0.1723   50.4468 H   0  0  0  0  0  0
  1  3  1  0  0  0
  1 18  2  0  0  0
  1 23  1  0  0  0
  2  4  1  0  0  0
  2 19  2  0  0  0
  2 24  1  0  0  0
  3  4  1  0  0  0
  3  5  2  0  0  0
  4  8  2  0  0  0
  5  7  1  0  0  0
  5  9  1  0  0  0
  6  7  2  0  0  0
  6  8  1  0  0  0
  6 25  1  0  0  0
  9 10  1  0  0  0
  9 11  1  0  0  0
 11 13  2  0  0  0
 11 14  1  0  0  0
 12 13  1  0  0  0
 12 15  2  0  0  0
 12 26  1  0  0  0
 13 27  1  0  0  0
 14 16  2  0  0  0
 14 28  1  0  0  0
 15 16  1  0  0  0
 15 29  1  0  0  0
 16 17  1  0  0  0
 18 19  1  0  0  0
 18 21  1  0  0  0
 19 20  1  0  0  0
 20 22  1  0  0  0
 21 22  1  0  0  0
 22 30  1  0  0  0
 22 31  1  0  0  0
M  END
> <s_m_entry_id>
292

> <s_m_entry_name>
pocket_pv.103

> <s_m_Source_Path>
/home/bortolaa/Project/GT/mario-master/docking/set505protein_struct_1_site_1_set505ligs_train

> <s_m_Source_File>
pocket_pv.maegz

> <i_m_Source_File_Index>
103

> <From>
www.bindingDB.org

> <BindingDB Reactant_set_id>
5316

> <Ligand InChI>
InChI=1S/C15H10BrN3O2/c16-9-2-1-3-10(4-9)19-15-11-5-13-14(21-8-20-13)6-12(11)17-7-18-15/h1-7H,8H2,(H,17,18,19)

> <Ligand InChI Key>
OLQRGQFUIYIRSU-UHFFFAOYSA-N

> <BindingDB MonomerID>
3554

> <BindingDB Ligand Name>
CHEMBL93051::N-(3-bromophenyl)-2H-[1,3]dioxolo[4,5-g]quinazolin-8-amine::PD153035 Analog 54

> <Target Name Assigned by Curator or DataSource>
Epidermal growth factor receptor

> <Target Source Organism According to Curator or DataSource>
Homo sapiens

> <Ki (nM)>


> <Kd (nM)>


> <EC50 (nM)>


> <kon (M-1-s-1)>


> <koff (s-1)>


> <pH>


> <Temp C>


> <Curation/DataSource>
Curated from the literature by BindingDB

> <Article DOI>
10.1021/bi060184f

> <PMID>


> <PubChem AID>


> <Patent Number>


> <Authors>
Bridges, AJ; Zhou, HR; Cody, DR; Rewcastle, GW; McMichael, A; Showalter, HH; Fry, DW; Kraker, AJ; Denny, WA

> <Institution>
Parke-Davis Pharmaceutical Research

> <Link to Ligand in BindingDB>
http://www.bindingdb.org/bind/chemsearch/marvin/MolStructure.jsp?monomerid=3554

> <Link to Ligand-Target Pair in BindingDB>
http://www.bindingdb.org/jsp/dbsearch/PrimarySearch_ki.jsp?energyterm=kJ/mole&tag=r21&monomerid=3554&enzyme=Epidermal+growth+factor+receptor&column=ki&startPg=0&Increment=50&submit=Search

> <Ligand HET ID in PDB>


> <PDB ID(s) for Ligand-Target Complex>


> <PubChem CID>
5328220

> <PubChem SID>
8033278

> <ChEBI ID of Ligand>


> <ChEMBL ID of Ligand>
CHEMBL93051

> <DrugBank ID of Ligand>


> <IUPHAR_GRAC ID of Ligand>


> <KEGG ID of Ligand>


> <ZINC ID of Ligand>
ZINC03815200

> <Number of Protein Chains in Target (>
1

> <BindingDB Target Chain Sequence>
MRPSGTAGAALLALLAALCPASRALEEKKVCQGTSNKLTQLGTFEDHFLSLQRMFNNCEVVLGNLEITYVQRNYDLSFLKTIQEVAGYVLIALNTVERIPLENLQIIRGNMYYENSYALAVLSNYDANKTGLKELPMRNLQEILHGAVRFSNNPALCNVESIQWRDIVSSDFLSNMSMDFQNHLGSCQKCDPSCPNGSCWGAGEENCQKLTKIICAQQCSGRCRGKSPSDCCHNQCAAGCTGPRESDCLVCRKFRDEATCKDTCPPLMLYNPTTYQMDVNPEGKYSFGATCVKKCPRNYVVTDHGSCVRACGADSYEMEEDGVRKCKKCEGPCRKVCNGIGIGEFKDSLSINATNIKHFKNCTSISGDLHILPVAFRGDSFTHTPPLDPQELDILKTVKEITGFLLIQAWPENRTDLHAFENLEIIRGRTKQHGQFSLAVVSLNITSLGLRSLKEISDGDVIISGNKNLCYANTINWKKLFGTSGQKTKIISNRGENSCKATGQVCHALCSPEGCWGPEPRDCVSCRNVSRGRECVDKCNLLEGEPREFVENSECIQCHPECLPQAMNITCTGRGPDNCIQCAHYIDGPHCVKTCPAGVMGENNTLVWKYADAGHVCHLCHPNCTYGCTGPGLEGCPTNGPKIPSIATGMVGALLLLLVVALGIGLFMRRRHIVRKRTLRRLLQERELVEPLTPSGEAPNQALLRILKETEFKKIKVLGSGAFGTVYKGLWIPEGEKVKIPVAIKELREATSPKANKEILDEAYVMASVDNPHVCRLLGICLTSTVQLITQLMPFGCLLDYVREHKDNIGSQYLLNWCVQIAKGMNYLEDRRLVHRDLAARNVLVKTPQHVKITDFGLAKLLGAEEKEYHAEGGKVPIKWMALESILHRIYTHQSDVWSYGVTVWELMTFGSKPYDGIPASEISSILEKGERLPQPPICTIDVYMIMVKCWMIDADSRPKFRELIIEFSKMARDPQRYLVIQGDERMHLPSPTDSNFYRALMDEEDMDDVVDADEYLIPQQGFFSSPSTSRTPLLSSLSATSNNSTVACIDRNGLQSCPIKEDSFLQRYSSDPTGALTEDSIDDTFLPVPEYINQSVPKRPAGSVQNPVYHNQPLNPAPSRDPHYQDPHSTAVGNPEYLNTVQPTCVNSTFDSPAHWAQKGSHQISLDNPDYQQDFFPKEAKPNGIFKGSTAENAEYLRVAPQSSEFIGA

> <PDB ID(s) of Target Chain>
1IVO,1M14,1M17,1MOX,1XKK,1Z9I,2GS2,2GS6,2ITW,2ITX,2ITY,2J5E,2J5F,2J6M,2RF9,2RGP,3B2V,3BEL,3GOP,3POZ,3QWQ,3VJO,3W2O,3W2P,3W2Q,3W2R,3W2S,3W32,3W33,4G5J,4I23,4JQ7,4JQ8,4JR3,4JRV,4KRO,4LI5,4RJ4,4RJ5,4RJ6,4RJ7,4RJ8,4TKS,4UIP,4UV7,4WKQ,4WRG,4ZAU,5C8K,5C8M,5C8N,5CAL,5CAN,5CAO,5CAP,5CAQ,5CAS,5CAU,5CAV,5EDP,5EDQ,5EDR,5EM5,5EM6,5EM7,5EM8,5FED,5GNK,5HCX,5HCY,5HCZ,5HIB,5HIC,5UGB,5WB7,5WB8,5Y25,6S89,6S8A

> <UniProt (SwissProt) Recommended Name of Target Chain>
Epidermal growth factor receptor

> <UniProt (SwissProt) Entry Name of Target Chain>
EGFR_HUMAN

> <UniProt (SwissProt) Primary ID of Target Chain>
P00533

> <UniProt (SwissProt) Secondary ID(s) of Target Chain>
O00688,O00732,P06268,Q14225,Q68GS5,Q92795,Q9BZS2,Q9GZX1,Q9H2C9,Q9H3C9,Q9UMD7,Q9UMD8,Q9UMG5

> <UniProt (SwissProt) Alternative ID(s) of Target Chain>


> <UniProt (TrEMBL) Submitted Name of Target Chain>


> <UniProt (TrEMBL) Entry Name of Target Chain>


> <UniProt (TrEMBL) Primary ID of Target Chain>


> <UniProt (TrEMBL) Secondary ID(s) of Target Chain>


> <UniProt (TrEMBL) Alternative ID(s) of Target Chain>


> <training label>
7.82391

> <i_lp_mmshare_version>
54117

> <s_epik_input>
TzFbQ0gyXU9jKFtjSF0yKWMxW2NIXWMoYzIzKW5bY0hdbmMzW05IXWM0W2NIXVtjSF1bY0hdYyhCcilbY0hdNA==

> <s_epik_cmdline>
J2VwaWtfcHl0aG9uJywgJy1waHQnLCAnMC4xJywgJy1waCcsICc3LjQnLCAnLXRuJywgJzgnLCAnLW1hJywgJzIwMCcsICctaW1hZScsICc8aW5maWxlLm1hZT4nLCAnLW9tYWUnLCAnPG91dGZpbGUubWFlPic=

> <r_lp_tautomer_probability>
1

> <r_epik_Ionization_Penalty>
  0.0006

> <r_epik_Ionization_Penalty_Charging>
  0.0000

> <r_epik_Ionization_Penalty_Neutral>
  0.0006

> <r_epik_State_Penalty>
  0.0000

> <r_epik_Charging_Adjusted_Penalty>
0

> <i_epik_Tot_Q>
0

> <i_epik_Tot_abs_Q>
0

> <i_f3d_flags>
0

> <s_lp_Force_Field>
OPLS_2005

> <r_lp_Energy>
24.692418

> <b_lp_Chiralities_Consistent>
1

> <s_lp_Variant>
BindingDB_3554_mol_1-1

> <s_i_glide_gridfile>
struct_1_site_1

> <i_i_glide_lignum>
217

> <i_i_glide_rotatable_bonds>
2

> <r_i_docking_score>
-7.66281113383862

> <r_i_glide_ligand_efficiency>
-0.364895768278029

> <r_i_glide_ligand_efficiency_sa>
-1.00671975593976

> <r_i_glide_ligand_efficiency_ln>
-1.89461456867374

> <r_i_glide_gscore>
-7.66281113383862

> <r_i_glide_lipo>
-2.62468684770253

> <r_i_glide_hbond>
-0.32

> <r_i_glide_metal>
0

> <r_i_glide_rewards>
-2.39451721366326

> <r_i_glide_evdw>
-38.5635185241699

> <r_i_glide_ecoul>
-4.77317905426025

> <r_i_glide_erotb>
0.320545711874711

> <r_i_glide_esite>
0

> <r_i_glide_emodel>
-41.689878375053

> <r_i_glide_energy>
-43.3366975784302

> <r_i_glide_einternal>
1.34172260761261

> <i_i_glide_confnum>
1

> <i_i_glide_posenum>
35

> <r_i_glide_eff_state_penalty>
0

> <IC50 (nM)>
15

> <s_epik_Chemistry_Notes>
This compound contains an acetal/aminal-like group ( X-CH(R)-Y where X, Y are N, S, or O) that may be acid/base labile, releasing an aldehyde.

> <r_glide_shape_similarity>
0.77516508102417

> <s_m_subgroup_title>
505 training

> <s_m_subgroupid>
pocket_pv

> <b_m_subgroup_collapsed>
0

$$$$
/home/bortolaa/Project/GT/mario-master/ligands/set505ligs_train.sdf:246
                    3D
 Schrodinger Suite 2021-2.
 49 51  0  0  1  0            999 V2000
   20.1955    1.6944   49.9092 C   0  0  0  0  0  0
   19.3474    2.4608   48.9832 C   0  0  0  0  0  0
   18.0635    2.8287   49.2074 C   0  0  0  0  0  0
   21.3708    1.4113   49.6367 O   0  0  0  0  0  0
   19.5953    1.3026   51.0688 N   0  0  0  0  0  0
   21.8007   -1.9103   55.1504 N   0  0  0  0  0  0
   23.0987   -1.7530   55.4213 C   0  0  0  0  0  0
   23.9437   -0.9079   54.8336 N   0  0  0  0  0  0
   23.4409   -0.0999   53.8732 C   0  0  0  0  0  0
   22.0739   -0.1696   53.5079 C   0  0  0  0  0  0
   21.5206    0.6554   52.4987 C   0  0  0  0  0  0
   20.1628    0.5261   52.1312 C   0  0  0  0  0  0
   19.3283   -0.3836   52.8275 C   0  0  0  0  0  0
   19.8930   -1.2103   53.8426 C   0  0  0  0  0  0
   21.2649   -1.1212   54.1891 C   0  0  0  0  0  0
   18.0009   -0.4022   52.4358 O   0  0  0  0  0  0
   17.0892   -1.2289   53.1387 C   0  0  0  0  0  0
   15.6693   -0.9700   52.5979 C   0  0  0  0  0  0
   15.1658    0.2332   53.1656 O   0  0  0  0  0  0
   13.7512    0.3392   53.0935 C   0  0  0  0  0  0
   24.2873    0.8533   53.2768 N   0  0  0  0  0  0
   25.6838    0.9534   53.3398 C   0  0  0  0  0  0
   26.5163   -0.1910   53.3338 C   0  0  0  0  0  0
   27.9201   -0.0538   53.3847 C   0  0  0  0  0  0
   28.5049    1.2311   53.4384 C   0  0  0  0  0  0
   27.6774    2.3727   53.4291 C   0  0  0  0  0  0
   26.2742    2.2369   53.3703 C   0  0  0  0  0  0
   28.7485   -1.2474   53.3677 C   0  0  0  0  0  0
   29.3763   -2.2959   53.3593 C   0  0  0  0  0  0
   19.7930    2.7504   48.0451 H   0  0  0  0  0  0
   17.5241    3.3914   48.4622 H   0  0  0  0  0  0
   17.5231    2.5904   50.1088 H   0  0  0  0  0  0
   18.5961    1.4484   51.1406 H   0  0  0  0  0  0
   23.5122   -2.4014   56.1794 H   0  0  0  0  0  0
   22.1383    1.3717   51.9850 H   0  0  0  0  0  0
   19.2852   -1.9229   54.3810 H   0  0  0  0  0  0
   17.3599   -2.2730   52.9754 H   0  0  0  0  0  0
   17.1189   -1.0435   54.2132 H   0  0  0  0  0  0
   15.6641   -0.9263   51.5087 H   0  0  0  0  0  0
   15.0344   -1.8034   52.8967 H   0  0  0  0  0  0
   13.4386    1.2961   53.5114 H   0  0  0  0  0  0
   13.4017    0.2887   52.0607 H   0  0  0  0  0  0
   13.2696   -0.4513   53.6704 H   0  0  0  0  0  0
   23.8193    1.6296   52.8315 H   0  0  0  0  0  0
   26.0819   -1.1785   53.2836 H   0  0  0  0  0  0
   29.5797    1.3472   53.4726 H   0  0  0  0  0  0
   28.1160    3.3602   53.4615 H   0  0  0  0  0  0
   25.6623    3.1296   53.3711 H   0  0  0  0  0  0
   29.8960   -3.2293   53.3612 H   0  0  0  0  0  0
  1  2  1  0  0  0
  1  4  2  0  0  0
  1  5  1  0  0  0
  2  3  2  0  0  0
  2 30  1  0  0  0
  3 31  1  0  0  0
  3 32  1  0  0  0
  5 12  1  0  0  0
  5 33  1  0  0  0
  6  7  1  0  0  0
  6 15  2  0  0  0
  7  8  2  0  0  0
  7 34  1  0  0  0
  8  9  1  0  0  0
  9 10  2  0  0  0
  9 21  1  0  0  0
 10 11  1  0  0  0
 10 15  1  0  0  0
 11 12  2  0  0  0
 11 35  1  0  0  0
 12 13  1  0  0  0
 13 14  2  0  0  0
 13 16  1  0  0  0
 14 15  1  0  0  0
 14 36  1  0  0  0
 16 17  1  0  0  0
 17 18  1  0  0  0
 17 37  1  0  0  0
 17 38  1  0  0  0
 18 19  1  0  0  0
 18 39  1  0  0  0
 18 40  1  0  0  0
 19 20  1  0  0  0
 20 41  1  0  0  0
 20 42  1  0  0  0
 20 43  1  0  0  0
 21 22  1  0  0  0
 21 44  1  0  0  0
 22 23  1  0  0  0
 22 27  2  0  0  0
 23 24  2  0  0  0
 23 45  1  0  0  0
 24 25  1  0  0  0
 24 28  1  0  0  0
 25 26  2  0  0  0
 25 46  1  0  0  0
 26 27  1  0  0  0
 26 47  1  0  0  0
 27 48  1  0  0  0
 28 29  3  0  0  0
 29 49  1  0  0  0
M  END
> <s_m_entry_id>
293

> <s_m_entry_name>
pocket_pv.104

> <s_m_Source_Path>
/home/bortolaa/Project/GT/mario-master/docking/set505protein_struct_1_site_1_set505ligs_train

> <s_m_Source_File>
pocket_pv.maegz

> <i_m_Source_File_Index>
104

> <From>
www.bindingDB.org

> <BindingDB Reactant_set_id>
50419190

> <Ligand InChI>
InChI=1S/C22H20N4O3/c1-4-15-7-6-8-16(11-15)25-22-17-12-19(26-21(27)5-2)20(29-10-9-28-3)13-18(17)23-14-24-22/h1,5-8,11-14H,2,9-10H2,3H3,(H,26,27)(H,23,24,25)

> <Ligand InChI Key>
JVYVRTDXSDBWOT-UHFFFAOYSA-N

> <BindingDB MonomerID>
50123222

> <BindingDB Ligand Name>
CHEMBL3622617

> <Target Name Assigned by Curator or DataSource>
Epidermal growth factor receptor

> <Target Source Organism According to Curator or DataSource>
Homo sapiens

> <Ki (nM)>


> <Kd (nM)>


> <EC50 (nM)>


> <kon (M-1-s-1)>


> <koff (s-1)>


> <pH>


> <Temp C>


> <Curation/DataSource>
ChEMBL

> <Article DOI>
10.1016/j.ejmech.2015.08.026

> <PubChem AID>


> <Patent Number>


> <Authors>
Zhang, L; Yang, Y; Zhou, H; Zheng, Q; Li, Y; Zheng, S; Zhao, S; Chen, D; Fan, C

> <Institution>
Qilu Pharmaceutical Co, Ltd

> <Link to Ligand in BindingDB>
http://www.bindingdb.org/bind/chemsearch/marvin/MolStructure.jsp?monomerid=50123222

> <Link to Ligand-Target Pair in BindingDB>
http://www.bindingdb.org/jsp/dbsearch/PrimarySearch_ki.jsp?energyterm=kJ/mole&tag=r21&monomerid=50123222&enzyme=Epidermal+growth+factor+receptor&column=ki&startPg=0&Increment=50&submit=Search

> <Ligand HET ID in PDB>


> <PDB ID(s) for Ligand-Target Complex>


> <PubChem CID>
66555781

> <PubChem SID>
321901935

> <ChEBI ID of Ligand>


> <ChEMBL ID of Ligand>
CHEMBL3622617

> <DrugBank ID of Ligand>


> <IUPHAR_GRAC ID of Ligand>


> <KEGG ID of Ligand>


> <ZINC ID of Ligand>


> <Number of Protein Chains in Target (>
1

> <BindingDB Target Chain Sequence>
MRPSGTAGAALLALLAALCPASRALEEKKVCQGTSNKLTQLGTFEDHFLSLQRMFNNCEVVLGNLEITYVQRNYDLSFLKTIQEVAGYVLIALNTVERIPLENLQIIRGNMYYENSYALAVLSNYDANKTGLKELPMRNLQEILHGAVRFSNNPALCNVESIQWRDIVSSDFLSNMSMDFQNHLGSCQKCDPSCPNGSCWGAGEENCQKLTKIICAQQCSGRCRGKSPSDCCHNQCAAGCTGPRESDCLVCRKFRDEATCKDTCPPLMLYNPTTYQMDVNPEGKYSFGATCVKKCPRNYVVTDHGSCVRACGADSYEMEEDGVRKCKKCEGPCRKVCNGIGIGEFKDSLSINATNIKHFKNCTSISGDLHILPVAFRGDSFTHTPPLDPQELDILKTVKEITGFLLIQAWPENRTDLHAFENLEIIRGRTKQHGQFSLAVVSLNITSLGLRSLKEISDGDVIISGNKNLCYANTINWKKLFGTSGQKTKIISNRGENSCKATGQVCHALCSPEGCWGPEPRDCVSCRNVSRGRECVDKCNLLEGEPREFVENSECIQCHPECLPQAMNITCTGRGPDNCIQCAHYIDGPHCVKTCPAGVMGENNTLVWKYADAGHVCHLCHPNCTYGCTGPGLEGCPTNGPKIPSIATGMVGALLLLLVVALGIGLFMRRRHIVRKRTLRRLLQERELVEPLTPSGEAPNQALLRILKETEFKKIKVLGSGAFGTVYKGLWIPEGEKVKIPVAIKELREATSPKANKEILDEAYVMASVDNPHVCRLLGICLTSTVQLITQLMPFGCLLDYVREHKDNIGSQYLLNWCVQIAKGMNYLEDRRLVHRDLAARNVLVKTPQHVKITDFGLAKLLGAEEKEYHAEGGKVPIKWMALESILHRIYTHQSDVWSYGVTVWELMTFGSKPYDGIPASEISSILEKGERLPQPPICTIDVYMIMVKCWMIDADSRPKFRELIIEFSKMARDPQRYLVIQGDERMHLPSPTDSNFYRALMDEEDMDDVVDADEYLIPQQGFFSSPSTSRTPLLSSLSATSNNSTVACIDRNGLQSCPIKEDSFLQRYSSDPTGALTEDSIDDTFLPVPEYINQSVPKRPAGSVQNPVYHNQPLNPAPSRDPHYQDPHSTAVGNPEYLNTVQPTCVNSTFDSPAHWAQKGSHQISLDNPDYQQDFFPKEAKPNGIFKGSTAENAEYLRVAPQSSEFIGA

> <PDB ID(s) of Target Chain>
1IVO,1M14,1M17,1MOX,1XKK,1Z9I,2GS2,2GS6,2ITW,2ITX,2ITY,2J5E,2J5F,2J6M,2RF9,2RGP,3B2V,3BEL,3GOP,3POZ,3QWQ,3VJO,3W2O,3W2P,3W2Q,3W2R,3W2S,3W32,3W33,4G5J,4I23,4JQ7,4JQ8,4JR3,4JRV,4KRO,4LI5,4RJ4,4RJ5,4RJ6,4RJ7,4RJ8,4TKS,4UIP,4UV7,4WKQ,4WRG,4ZAU,5C8K,5C8M,5C8N,5CAL,5CAN,5CAO,5CAP,5CAQ,5CAS,5CAU,5CAV,5EDP,5EDQ,5EDR,5EM5,5EM6,5EM7,5EM8,5FED,5GNK,5HCX,5HCY,5HCZ,5HIB,5HIC,5UGB,5WB7,5WB8,5Y25,6S89,6S8A

> <UniProt (SwissProt) Recommended Name of Target Chain>
Epidermal growth factor receptor

> <UniProt (SwissProt) Entry Name of Target Chain>
EGFR_HUMAN

> <UniProt (SwissProt) Primary ID of Target Chain>
P00533

> <UniProt (SwissProt) Secondary ID(s) of Target Chain>
O00688,O00732,P06268,Q14225,Q68GS5,Q92795,Q9BZS2,Q9GZX1,Q9H2C9,Q9H3C9,Q9UMD7,Q9UMD8,Q9UMG5

> <UniProt (SwissProt) Alternative ID(s) of Target Chain>


> <UniProt (TrEMBL) Submitted Name of Target Chain>


> <UniProt (TrEMBL) Entry Name of Target Chain>


> <UniProt (TrEMBL) Primary ID of Target Chain>


> <UniProt (TrEMBL) Secondary ID(s) of Target Chain>


> <UniProt (TrEMBL) Alternative ID(s) of Target Chain>


> <training label>
8.74473

> <i_lp_mmshare_version>
54117

> <s_epik_input>
W0NIMl09W0NIXUMoPU8pW05IXWMoW2NIXTEpYyhPW0NIMl1bQ0gyXU9bQ0gzXSlbY0hdYyhjMTIpbltjSF1uYzJbTkhdYzNbY0hdYyhDI1tDSF0pW2NIXVtjSF1bY0hdMw==

> <s_epik_cmdline>
J2VwaWtfcHl0aG9uJywgJy1waHQnLCAnMC4xJywgJy1waCcsICc3LjQnLCAnLXRuJywgJzgnLCAnLW1hJywgJzIwMCcsICctaW1hZScsICc8aW5maWxlLm1hZT4nLCAnLW9tYWUnLCAnPG91dGZpbGUubWFlPic=

> <r_lp_tautomer_probability>
1

> <r_epik_Ionization_Penalty>
  0.0010

> <r_epik_Ionization_Penalty_Charging>
  0.0000

> <r_epik_Ionization_Penalty_Neutral>
  0.0010

> <r_epik_State_Penalty>
  0.0000

> <r_epik_Charging_Adjusted_Penalty>
0

> <i_epik_Tot_Q>
0

> <i_epik_Tot_abs_Q>
0

> <i_f3d_flags>
0

> <s_lp_Force_Field>
OPLS_2005

> <r_lp_Energy>
20.551309

> <b_lp_Chiralities_Consistent>
1

> <s_lp_Variant>
/home/bortolaa/Project/GT/mario-master/ligands/set505ligs_train.sdf:246-1

> <s_i_glide_gridfile>
struct_1_site_1

> <i_i_glide_lignum>
274

> <i_i_glide_rotatable_bonds>
10

> <r_i_docking_score>
-7.6603372712871

> <r_i_glide_ligand_efficiency>
-0.264149561078865

> <r_i_glide_ligand_efficiency_sa>
-0.811551140089219

> <r_i_glide_ligand_efficiency_ln>
-1.75402298573184

> <r_i_glide_gscore>
-7.6603372712871

> <r_i_glide_lipo>
-3.2472941879766

> <r_i_glide_hbond>
-0.32

> <r_i_glide_metal>
0

> <r_i_glide_rewards>
-2.04500209124672

> <r_i_glide_evdw>
-47.2715072631836

> <r_i_glide_ecoul>
-5.64504957199097

> <r_i_glide_erotb>
1.16229180689405

> <r_i_glide_esite>
0

> <r_i_glide_emodel>
-70.8782962265714

> <r_i_glide_energy>
-52.9165568351746

> <r_i_glide_einternal>
7.01692390441895

> <i_i_glide_confnum>
130

> <i_i_glide_posenum>
81

> <r_i_glide_eff_state_penalty>
0

> <IC50 (nM)>
1.8

> <PMID>
26310890

> <r_glide_shape_similarity>
0.942432463169098

> <s_m_subgroup_title>
505 training

> <s_m_subgroupid>
pocket_pv

> <b_m_subgroup_collapsed>
0

$$$$
BindingDB_3557_mol_1
                    3D
 Schrodinger Suite 2021-2.
 48 50  0  0  1  0            999 V2000
   21.5136    0.6458   52.4873 C   0  0  0  0  0  0
   19.9108   -1.2069   53.8409 C   0  0  0  0  0  0
   22.0735   -0.1648   53.4923 C   0  0  0  0  0  0
   21.2723   -1.1046   54.1761 C   0  0  0  0  0  0
   23.4359   -0.0925   53.8570 C   0  0  0  0  0  0
   23.0947   -1.7196   55.4020 C   0  0  0  0  0  0
   23.9354   -0.8737   54.8232 N   0  0  0  0  0  0
   21.8050   -1.8816   55.1364 N   0  0  0  0  0  0
   24.2900    0.8505   53.2733 N   0  0  0  0  0  0
   23.8236    1.6217   52.8320 H   0  0  0  0  0  0
   25.6848    0.9485   53.3445 C   0  0  0  0  0  0
   27.6709    2.3576   53.4241 C   0  0  0  0  0  0
   26.2750    2.2223   53.3698 C   0  0  0  0  0  0
   26.5150   -0.1873   53.3361 C   0  0  0  0  0  0
   28.4912    1.2226   53.4429 C   0  0  0  0  0  0
   27.9109   -0.0495   53.3854 C   0  0  0  0  0  0
   29.0143   -1.5867   53.3741 Br  0  0  0  0  0  0
   20.1524    0.5281   52.1527 C   0  0  0  0  0  0
   19.3478   -0.3916   52.8372 C   0  0  0  0  0  0
   19.4850    1.2773   51.2136 O   0  0  0  0  0  0
   20.1520    2.2089   50.3902 C   0  0  0  0  0  0
   18.0335   -0.4067   52.4476 O   0  0  0  0  0  0
   17.0985   -1.1567   53.1867 C   0  0  0  0  0  0
   15.7272   -0.9158   52.5460 C   0  0  0  0  0  0
   15.2152    0.5131   52.7198 C   0  0  0  0  0  0
   20.7272    1.4955   49.1763 C   0  0  0  0  0  0
   21.4127    2.4733   48.2145 C   0  0  0  0  0  0
   22.1375    1.3440   51.9509 H   0  0  0  0  0  0
   19.3055   -1.9170   54.3851 H   0  0  0  0  0  0
   23.5048   -2.3525   56.1746 H   0  0  0  0  0  0
   28.1065    3.3458   53.4536 H   0  0  0  0  0  0
   25.6621    3.1131   53.3649 H   0  0  0  0  0  0
   26.0869   -1.1787   53.2817 H   0  0  0  0  0  0
   29.5643    1.3325   53.4893 H   0  0  0  0  0  0
   20.9030    2.7821   50.9334 H   0  0  0  0  0  0
   19.4029    2.9296   50.0557 H   0  0  0  0  0  0
   17.3494   -2.2171   53.1325 H   0  0  0  0  0  0
   17.0893   -0.8660   54.2386 H   0  0  0  0  0  0
   15.7752   -1.1704   51.4883 H   0  0  0  0  0  0
   15.0079   -1.6002   52.9970 H   0  0  0  0  0  0
   14.2414    0.6364   52.2384 H   0  0  0  0  0  0
   15.0866    0.7624   53.7727 H   0  0  0  0  0  0
   15.9020    1.2368   52.2790 H   0  0  0  0  0  0
   19.9285    0.9781   48.6473 H   0  0  0  0  0  0
   21.4425    0.7289   49.4883 H   0  0  0  0  0  0
   21.8703    1.9434   47.3775 H   0  0  0  0  0  0
   22.2031    3.0303   48.7204 H   0  0  0  0  0  0
   20.6975    3.1908   47.8040 H   0  0  0  0  0  0
  1  3  1  0  0  0
  1 18  2  0  0  0
  1 28  1  0  0  0
  2  4  1  0  0  0
  2 19  2  0  0  0
  2 29  1  0  0  0
  3  4  1  0  0  0
  3  5  2  0  0  0
  4  8  2  0  0  0
  5  7  1  0  0  0
  5  9  1  0  0  0
  6  7  2  0  0  0
  6  8  1  0  0  0
  6 30  1  0  0  0
  9 10  1  0  0  0
  9 11  1  0  0  0
 11 13  2  0  0  0
 11 14  1  0  0  0
 12 13  1  0  0  0
 12 15  2  0  0  0
 12 31  1  0  0  0
 13 32  1  0  0  0
 14 16  2  0  0  0
 14 33  1  0  0  0
 15 16  1  0  0  0
 15 34  1  0  0  0
 16 17  1  0  0  0
 18 19  1  0  0  0
 18 20  1  0  0  0
 19 22  1  0  0  0
 20 21  1  0  0  0
 21 26  1  0  0  0
 21 35  1  0  0  0
 21 36  1  0  0  0
 22 23  1  0  0  0
 23 24  1  0  0  0
 23 37  1  0  0  0
 23 38  1  0  0  0
 24 25  1  0  0  0
 24 39  1  0  0  0
 24 40  1  0  0  0
 25 41  1  0  0  0
 25 42  1  0  0  0
 25 43  1  0  0  0
 26 27  1  0  0  0
 26 44  1  0  0  0
 26 45  1  0  0  0
 27 46  1  0  0  0
 27 47  1  0  0  0
 27 48  1  0  0  0
M  END
> <s_m_entry_id>
294

> <s_m_entry_name>
pocket_pv.105

> <s_m_Source_Path>
/home/bortolaa/Project/GT/mario-master/docking/set505protein_struct_1_site_1_set505ligs_train

> <s_m_Source_File>
pocket_pv.maegz

> <i_m_Source_File_Index>
105

> <From>
www.bindingDB.org

> <BindingDB Reactant_set_id>
50210609

> <Ligand InChI>
InChI=1S/C20H22BrN3O2/c1-3-8-25-18-11-16-17(12-19(18)26-9-4-2)22-13-23-20(16)24-15-7-5-6-14(21)10-15/h5-7,10-13H,3-4,8-9H2,1-2H3,(H,22,23,24)

> <Ligand InChI Key>
ZBOJKFDQWQBBHE-UHFFFAOYSA-N

> <BindingDB MonomerID>
3557

> <BindingDB Ligand Name>
CHEMBL418967::N-(3-bromophenyl)-6,7-dipropoxyquinazolin-4-amine::PD153035 Analog 57

> <Target Name Assigned by Curator or DataSource>
Epidermal growth factor receptor

> <Target Source Organism According to Curator or DataSource>
Homo sapiens

> <Ki (nM)>


> <Kd (nM)>


> <EC50 (nM)>


> <kon (M-1-s-1)>


> <koff (s-1)>


> <pH>


> <Temp C>


> <Curation/DataSource>
ChEMBL

> <Article DOI>
10.1021/jm070654j

> <PubChem AID>


> <Patent Number>


> <Authors>
Kolb, P; Huang, D; Dey, F; Caflisch, A

> <Institution>
University of Zurich

> <Link to Ligand in BindingDB>
http://www.bindingdb.org/bind/chemsearch/marvin/MolStructure.jsp?monomerid=3557

> <Link to Ligand-Target Pair in BindingDB>
http://www.bindingdb.org/jsp/dbsearch/PrimarySearch_ki.jsp?energyterm=kJ/mole&tag=r21&monomerid=3557&enzyme=Epidermal+growth+factor+receptor&column=ki&startPg=0&Increment=50&submit=Search

> <Ligand HET ID in PDB>


> <PDB ID(s) for Ligand-Target Complex>


> <PubChem CID>
5328221

> <PubChem SID>
8033280

> <ChEBI ID of Ligand>


> <ChEMBL ID of Ligand>
CHEMBL418967

> <DrugBank ID of Ligand>


> <IUPHAR_GRAC ID of Ligand>


> <KEGG ID of Ligand>


> <ZINC ID of Ligand>
ZINC03815039

> <Number of Protein Chains in Target (>
1

> <BindingDB Target Chain Sequence>
MRPSGTAGAALLALLAALCPASRALEEKKVCQGTSNKLTQLGTFEDHFLSLQRMFNNCEVVLGNLEITYVQRNYDLSFLKTIQEVAGYVLIALNTVERIPLENLQIIRGNMYYENSYALAVLSNYDANKTGLKELPMRNLQEILHGAVRFSNNPALCNVESIQWRDIVSSDFLSNMSMDFQNHLGSCQKCDPSCPNGSCWGAGEENCQKLTKIICAQQCSGRCRGKSPSDCCHNQCAAGCTGPRESDCLVCRKFRDEATCKDTCPPLMLYNPTTYQMDVNPEGKYSFGATCVKKCPRNYVVTDHGSCVRACGADSYEMEEDGVRKCKKCEGPCRKVCNGIGIGEFKDSLSINATNIKHFKNCTSISGDLHILPVAFRGDSFTHTPPLDPQELDILKTVKEITGFLLIQAWPENRTDLHAFENLEIIRGRTKQHGQFSLAVVSLNITSLGLRSLKEISDGDVIISGNKNLCYANTINWKKLFGTSGQKTKIISNRGENSCKATGQVCHALCSPEGCWGPEPRDCVSCRNVSRGRECVDKCNLLEGEPREFVENSECIQCHPECLPQAMNITCTGRGPDNCIQCAHYIDGPHCVKTCPAGVMGENNTLVWKYADAGHVCHLCHPNCTYGCTGPGLEGCPTNGPKIPSIATGMVGALLLLLVVALGIGLFMRRRHIVRKRTLRRLLQERELVEPLTPSGEAPNQALLRILKETEFKKIKVLGSGAFGTVYKGLWIPEGEKVKIPVAIKELREATSPKANKEILDEAYVMASVDNPHVCRLLGICLTSTVQLITQLMPFGCLLDYVREHKDNIGSQYLLNWCVQIAKGMNYLEDRRLVHRDLAARNVLVKTPQHVKITDFGLAKLLGAEEKEYHAEGGKVPIKWMALESILHRIYTHQSDVWSYGVTVWELMTFGSKPYDGIPASEISSILEKGERLPQPPICTIDVYMIMVKCWMIDADSRPKFRELIIEFSKMARDPQRYLVIQGDERMHLPSPTDSNFYRALMDEEDMDDVVDADEYLIPQQGFFSSPSTSRTPLLSSLSATSNNSTVACIDRNGLQSCPIKEDSFLQRYSSDPTGALTEDSIDDTFLPVPEYINQSVPKRPAGSVQNPVYHNQPLNPAPSRDPHYQDPHSTAVGNPEYLNTVQPTCVNSTFDSPAHWAQKGSHQISLDNPDYQQDFFPKEAKPNGIFKGSTAENAEYLRVAPQSSEFIGA

> <PDB ID(s) of Target Chain>
1IVO,1M14,1M17,1MOX,1XKK,1Z9I,2GS2,2GS6,2ITW,2ITX,2ITY,2J5E,2J5F,2J6M,2RF9,2RGP,3B2V,3BEL,3GOP,3POZ,3QWQ,3VJO,3W2O,3W2P,3W2Q,3W2R,3W2S,3W32,3W33,4G5J,4I23,4JQ7,4JQ8,4JR3,4JRV,4KRO,4LI5,4RJ4,4RJ5,4RJ6,4RJ7,4RJ8,4TKS,4UIP,4UV7,4WKQ,4WRG,4ZAU,5C8K,5C8M,5C8N,5CAL,5CAN,5CAO,5CAP,5CAQ,5CAS,5CAU,5CAV,5EDP,5EDQ,5EDR,5EM5,5EM6,5EM7,5EM8,5FED,5GNK,5HCX,5HCY,5HCZ,5HIB,5HIC,5UGB,5WB7,5WB8,5Y25,6S89,6S8A

> <UniProt (SwissProt) Recommended Name of Target Chain>
Epidermal growth factor receptor

> <UniProt (SwissProt) Entry Name of Target Chain>
EGFR_HUMAN

> <UniProt (SwissProt) Primary ID of Target Chain>
P00533

> <UniProt (SwissProt) Secondary ID(s) of Target Chain>
O00688,O00732,P06268,Q14225,Q68GS5,Q92795,Q9BZS2,Q9GZX1,Q9H2C9,Q9H3C9,Q9UMD7,Q9UMD8,Q9UMG5

> <UniProt (SwissProt) Alternative ID(s) of Target Chain>


> <UniProt (TrEMBL) Submitted Name of Target Chain>


> <UniProt (TrEMBL) Entry Name of Target Chain>


> <UniProt (TrEMBL) Primary ID of Target Chain>


> <UniProt (TrEMBL) Secondary ID(s) of Target Chain>


> <UniProt (TrEMBL) Alternative ID(s) of Target Chain>


> <training label>
9.76

> <i_lp_mmshare_version>
54117

> <s_epik_input>
W0NIM11bQ0gyXVtDSDJdT2MoW2NIXTEpYyhPW0NIMl1bQ0gyXVtDSDNdKVtjSF1jKGMxMiluW2NIXW5jMltOSF1jM1tjSF1bY0hdW2NIXWMoQnIpW2NIXTM=

> <s_epik_cmdline>
J2VwaWtfcHl0aG9uJywgJy1waHQnLCAnMC4xJywgJy1waCcsICc3LjQnLCAnLXRuJywgJzgnLCAnLW1hJywgJzIwMCcsICctaW1hZScsICc8aW5maWxlLm1hZT4nLCAnLW9tYWUnLCAnPG91dGZpbGUubWFlPic=

> <r_lp_tautomer_probability>
1

> <r_epik_Ionization_Penalty>
  0.0006

> <r_epik_Ionization_Penalty_Charging>
  0.0000

> <r_epik_Ionization_Penalty_Neutral>
  0.0006

> <r_epik_State_Penalty>
  0.0000

> <r_epik_Charging_Adjusted_Penalty>
0

> <i_epik_Tot_Q>
0

> <i_epik_Tot_abs_Q>
0

> <i_f3d_flags>
0

> <s_lp_Force_Field>
OPLS_2005

> <r_lp_Energy>
20.141984

> <b_lp_Chiralities_Consistent>
1

> <s_lp_Variant>
BindingDB_3557_mol_1-1

> <s_i_glide_gridfile>
struct_1_site_1

> <i_i_glide_lignum>
291

> <i_i_glide_rotatable_bonds>
8

> <r_i_docking_score>
-7.65672734014153

> <r_i_glide_ligand_efficiency>
-0.294489513082366

> <r_i_glide_ligand_efficiency_sa>
-0.872424023746231

> <r_i_glide_ligand_efficiency_ln>
-1.79815729206065

> <r_i_glide_gscore>
-7.65672734014153

> <r_i_glide_lipo>
-3.25810535412068

> <r_i_glide_hbond>
-0.32

> <r_i_glide_metal>
0

> <r_i_glide_rewards>
-1.74654365960059

> <r_i_glide_evdw>
-44.7649230957031

> <r_i_glide_ecoul>
-5.18482208251953

> <r_i_glide_erotb>
0.683891140742829

> <r_i_glide_esite>
0

> <r_i_glide_emodel>
-60.9242687472062

> <r_i_glide_energy>
-49.9497451782227

> <r_i_glide_einternal>
2.84278130531311

> <i_i_glide_confnum>
136

> <i_i_glide_posenum>
370

> <r_i_glide_eff_state_penalty>
0

> <IC50 (nM)>
0.17378

> <PMID>
18271520

> <r_glide_shape_similarity>
0.872566699981689

> <s_m_subgroup_title>
505 training

> <s_m_subgroupid>
pocket_pv

> <b_m_subgroup_collapsed>
0

$$$$
BindingDB_50391088_mol_1
                    3D
 Schrodinger Suite 2021-2.
 48 51  0  0  1  0            999 V2000
   15.8469   -0.1397   52.0821 C   0  0  0  0  0  0
   17.0191   -0.8967   52.7392 C   0  0  0  0  0  0
   18.0721    0.0020   52.5750 O   0  0  0  0  0  0
   19.3781   -0.2664   52.8621 C   0  0  0  0  0  0
   20.2309    0.5752   52.1501 C   0  0  0  0  0  0
   19.6524    1.3958   51.2252 O   0  0  0  0  0  0
   20.3621    1.7418   50.0571 C   0  0  0  0  0  0
   19.2752    1.7562   48.9897 C   0  0  0  0  0  0
   18.3108    2.7515   49.2957 O   0  0  0  0  0  0
   16.9608    2.2858   49.3561 C   0  0  0  0  0  0
   16.5202    1.7686   50.7568 C   0  0  0  0  0  0
   16.2435    0.3595   50.7961 O   0  0  0  0  0  0
   19.8902   -1.1564   53.8329 C   0  0  0  0  0  0
   21.5859    0.6297   52.4635 C   0  0  0  0  0  0
   22.0935   -0.1817   53.4895 C   0  0  0  0  0  0
   21.2653   -1.1092   54.1695 C   0  0  0  0  0  0
   21.7935   -1.8939   55.1313 N   0  0  0  0  0  0
   23.0885   -1.7434   55.4075 C   0  0  0  0  0  0
   23.9378   -0.9040   54.8297 N   0  0  0  0  0  0
   23.4456   -0.1054   53.8687 C   0  0  0  0  0  0
   24.2912    0.8468   53.2821 N   0  0  0  0  0  0
   25.6819    0.9408   53.3422 C   0  0  0  0  0  0
   26.4997   -0.2074   53.3297 C   0  0  0  0  0  0
   27.8929   -0.0831   53.3881 C   0  0  0  0  0  0
   28.4698    1.1898   53.4610 C   0  0  0  0  0  0
   27.6682    2.3396   53.4301 C   0  0  0  0  0  0
   26.2726    2.2162   53.3669 C   0  0  0  0  0  0
   28.8834   -1.4917   53.3779 Cl  0  0  0  0  0  0
   29.8037    1.2985   53.5778 F   0  0  0  0  0  0
   15.4968    0.6635   52.7321 H   0  0  0  0  0  0
   15.0061   -0.8213   51.9498 H   0  0  0  0  0  0
   16.8270   -1.1081   53.7913 H   0  0  0  0  0  0
   17.2224   -1.8288   52.2199 H   0  0  0  0  0  0
   20.8380    2.7169   50.1664 H   0  0  0  0  0  0
   21.1245    1.0046   49.7975 H   0  0  0  0  0  0
   19.6925    1.9384   47.9995 H   0  0  0  0  0  0
   18.8274    0.7606   48.9770 H   0  0  0  0  0  0
   16.3474    3.1554   49.1189 H   0  0  0  0  0  0
   16.7429    1.5596   48.5703 H   0  0  0  0  0  0
   17.2509    2.0586   51.5109 H   0  0  0  0  0  0
   15.5988    2.2855   51.0333 H   0  0  0  0  0  0
   19.2263   -1.8013   54.3879 H   0  0  0  0  0  0
   22.2151    1.3262   51.9316 H   0  0  0  0  0  0
   23.4941   -2.3863   56.1741 H   0  0  0  0  0  0
   23.8236    1.6211   52.8407 H   0  0  0  0  0  0
   26.0625   -1.1932   53.2736 H   0  0  0  0  0  0
   28.1230    3.3185   53.4749 H   0  0  0  0  0  0
   25.6636    3.1102   53.3564 H   0  0  0  0  0  0
  1  2  1  0  0  0
  1 12  1  0  0  0
  1 30  1  0  0  0
  1 31  1  0  0  0
  2  3  1  0  0  0
  2 32  1  0  0  0
  2 33  1  0  0  0
  3  4  1  0  0  0
  4  5  2  0  0  0
  4 13  1  0  0  0
  5  6  1  0  0  0
  5 14  1  0  0  0
  6  7  1  0  0  0
  7  8  1  0  0  0
  7 34  1  0  0  0
  7 35  1  0  0  0
  8  9  1  0  0  0
  8 36  1  0  0  0
  8 37  1  0  0  0
  9 10  1  0  0  0
 10 11  1  0  0  0
 10 38  1  0  0  0
 10 39  1  0  0  0
 11 12  1  0  0  0
 11 40  1  0  0  0
 11 41  1  0  0  0
 13 16  2  0  0  0
 13 42  1  0  0  0
 14 15  2  0  0  0
 14 43  1  0  0  0
 15 16  1  0  0  0
 15 20  1  0  0  0
 16 17  1  0  0  0
 17 18  2  0  0  0
 18 19  1  0  0  0
 18 44  1  0  0  0
 19 20  2  0  0  0
 20 21  1  0  0  0
 21 22  1  0  0  0
 21 45  1  0  0  0
 22 23  2  0  0  0
 22 27  1  0  0  0
 23 24  1  0  0  0
 23 46  1  0  0  0
 24 25  2  0  0  0
 24 28  1  0  0  0
 25 26  1  0  0  0
 25 29  1  0  0  0
 26 27  2  0  0  0
 26 47  1  0  0  0
 27 48  1  0  0  0
M  END
> <s_m_entry_id>
295

> <s_m_entry_name>
pocket_pv.106

> <s_m_Source_Path>
/home/bortolaa/Project/GT/mario-master/docking/set505protein_struct_1_site_1_set505ligs_train

> <s_m_Source_File>
pocket_pv.maegz

> <i_m_Source_File_Index>
106

> <From>
www.bindingDB.org

> <BindingDB Reactant_set_id>
50952880

> <Ligand InChI>
InChI=1S/C20H19ClFN3O4/c21-15-9-13(1-2-16(15)22)25-20-14-10-18-19(11-17(14)23-12-24-20)29-8-6-27-4-3-26-5-7-28-18/h1-2,9-12H,3-8H2,(H,23,24,25)

> <Ligand InChI Key>
DHDUWXQFEYJFTD-UHFFFAOYSA-N

> <BindingDB MonomerID>
50391088

> <BindingDB Ligand Name>
CHEMBL2087360

> <Target Name Assigned by Curator or DataSource>
Epidermal growth factor receptor

> <Target Source Organism According to Curator or DataSource>
Homo sapiens

> <Ki (nM)>


> <Kd (nM)>


> <EC50 (nM)>


> <kon (M-1-s-1)>


> <koff (s-1)>


> <pH>


> <Temp C>


> <Curation/DataSource>
ChEMBL

> <Article DOI>
10.1016/j.bmcl.2012.06.067

> <PubChem AID>


> <Patent Number>


> <Authors>
Hu, S; Xie, G; Zhang, DX; Davis, C; Long, W; Hu, Y; Wang, F; Kang, X; Tan, F; Ding, L; Wang, Y

> <Institution>
Zhejiang Betapharma

> <Link to Ligand in BindingDB>
http://www.bindingdb.org/bind/chemsearch/marvin/MolStructure.jsp?monomerid=50391088

> <Link to Ligand-Target Pair in BindingDB>
http://www.bindingdb.org/jsp/dbsearch/PrimarySearch_ki.jsp?energyterm=kJ/mole&tag=r21&monomerid=50391088&enzyme=Epidermal+growth+factor+receptor&column=ki&startPg=0&Increment=50&submit=Search

> <Ligand HET ID in PDB>


> <PDB ID(s) for Ligand-Target Complex>


> <PubChem CID>
10216482

> <PubChem SID>
160870171

> <ChEBI ID of Ligand>


> <ChEMBL ID of Ligand>
CHEMBL2087360

> <DrugBank ID of Ligand>


> <IUPHAR_GRAC ID of Ligand>


> <KEGG ID of Ligand>


> <ZINC ID of Ligand>
ZINC38389202

> <Number of Protein Chains in Target (>
1

> <BindingDB Target Chain Sequence>
MRPSGTAGAALLALLAALCPASRALEEKKVCQGTSNKLTQLGTFEDHFLSLQRMFNNCEVVLGNLEITYVQRNYDLSFLKTIQEVAGYVLIALNTVERIPLENLQIIRGNMYYENSYALAVLSNYDANKTGLKELPMRNLQEILHGAVRFSNNPALCNVESIQWRDIVSSDFLSNMSMDFQNHLGSCQKCDPSCPNGSCWGAGEENCQKLTKIICAQQCSGRCRGKSPSDCCHNQCAAGCTGPRESDCLVCRKFRDEATCKDTCPPLMLYNPTTYQMDVNPEGKYSFGATCVKKCPRNYVVTDHGSCVRACGADSYEMEEDGVRKCKKCEGPCRKVCNGIGIGEFKDSLSINATNIKHFKNCTSISGDLHILPVAFRGDSFTHTPPLDPQELDILKTVKEITGFLLIQAWPENRTDLHAFENLEIIRGRTKQHGQFSLAVVSLNITSLGLRSLKEISDGDVIISGNKNLCYANTINWKKLFGTSGQKTKIISNRGENSCKATGQVCHALCSPEGCWGPEPRDCVSCRNVSRGRECVDKCNLLEGEPREFVENSECIQCHPECLPQAMNITCTGRGPDNCIQCAHYIDGPHCVKTCPAGVMGENNTLVWKYADAGHVCHLCHPNCTYGCTGPGLEGCPTNGPKIPSIATGMVGALLLLLVVALGIGLFMRRRHIVRKRTLRRLLQERELVEPLTPSGEAPNQALLRILKETEFKKIKVLGSGAFGTVYKGLWIPEGEKVKIPVAIKELREATSPKANKEILDEAYVMASVDNPHVCRLLGICLTSTVQLITQLMPFGCLLDYVREHKDNIGSQYLLNWCVQIAKGMNYLEDRRLVHRDLAARNVLVKTPQHVKITDFGLAKLLGAEEKEYHAEGGKVPIKWMALESILHRIYTHQSDVWSYGVTVWELMTFGSKPYDGIPASEISSILEKGERLPQPPICTIDVYMIMVKCWMIDADSRPKFRELIIEFSKMARDPQRYLVIQGDERMHLPSPTDSNFYRALMDEEDMDDVVDADEYLIPQQGFFSSPSTSRTPLLSSLSATSNNSTVACIDRNGLQSCPIKEDSFLQRYSSDPTGALTEDSIDDTFLPVPEYINQSVPKRPAGSVQNPVYHNQPLNPAPSRDPHYQDPHSTAVGNPEYLNTVQPTCVNSTFDSPAHWAQKGSHQISLDNPDYQQDFFPKEAKPNGIFKGSTAENAEYLRVAPQSSEFIGA

> <PDB ID(s) of Target Chain>
1IVO,1M14,1M17,1MOX,1XKK,1Z9I,2GS2,2GS6,2ITW,2ITX,2ITY,2J5E,2J5F,2J6M,2RF9,2RGP,3B2V,3BEL,3GOP,3POZ,3QWQ,3VJO,3W2O,3W2P,3W2Q,3W2R,3W2S,3W32,3W33,4G5J,4I23,4JQ7,4JQ8,4JR3,4JRV,4KRO,4LI5,4RJ4,4RJ5,4RJ6,4RJ7,4RJ8,4TKS,4UIP,4UV7,4WKQ,4WRG,4ZAU,5C8K,5C8M,5C8N,5CAL,5CAN,5CAO,5CAP,5CAQ,5CAS,5CAU,5CAV,5EDP,5EDQ,5EDR,5EM5,5EM6,5EM7,5EM8,5FED,5GNK,5HCX,5HCY,5HCZ,5HIB,5HIC,5UGB,5WB7,5WB8,5Y25,6S89,6S8A

> <UniProt (SwissProt) Recommended Name of Target Chain>
Epidermal growth factor receptor

> <UniProt (SwissProt) Entry Name of Target Chain>
EGFR_HUMAN

> <UniProt (SwissProt) Primary ID of Target Chain>
P00533

> <UniProt (SwissProt) Secondary ID(s) of Target Chain>
O00688,O00732,P06268,Q14225,Q68GS5,Q92795,Q9BZS2,Q9GZX1,Q9H2C9,Q9H3C9,Q9UMD7,Q9UMD8,Q9UMG5

> <UniProt (SwissProt) Alternative ID(s) of Target Chain>


> <UniProt (TrEMBL) Submitted Name of Target Chain>


> <UniProt (TrEMBL) Entry Name of Target Chain>


> <UniProt (TrEMBL) Primary ID of Target Chain>


> <UniProt (TrEMBL) Secondary ID(s) of Target Chain>


> <UniProt (TrEMBL) Alternative ID(s) of Target Chain>


> <training label>
7.34679

> <i_lp_mmshare_version>
54117

> <s_epik_input>
TzFbQ0gyXVtDSDJdT1tDSDJdW0NIMl1PW0NIMl1bQ0gyXU9jKGMxMilbY0hdYzNjKFtjSF0yKW5bY0hdbmMzW05IXWM0W2NIXWMoQ2wpYyhGKVtjSF1bY0hdNA==

> <s_epik_cmdline>
J2VwaWtfcHl0aG9uJywgJy1waHQnLCAnMC4xJywgJy1waCcsICc3LjQnLCAnLXRuJywgJzgnLCAnLW1hJywgJzIwMCcsICctaW1hZScsICc8aW5maWxlLm1hZT4nLCAnLW9tYWUnLCAnPG91dGZpbGUubWFlPic=

> <r_lp_tautomer_probability>
1

> <r_epik_Ionization_Penalty>
  0.0005

> <r_epik_Ionization_Penalty_Charging>
  0.0000

> <r_epik_Ionization_Penalty_Neutral>
  0.0005

> <r_epik_State_Penalty>
  0.0000

> <r_epik_Charging_Adjusted_Penalty>
0

> <i_epik_Tot_Q>
0

> <i_epik_Tot_abs_Q>
0

> <i_f3d_flags>
0

> <s_lp_Force_Field>
OPLS_2005

> <r_lp_Energy>
31.75711

> <b_lp_Chiralities_Consistent>
1

> <s_lp_Variant>
BindingDB_50391088_mol_1-1

> <s_i_glide_gridfile>
struct_1_site_1

> <i_i_glide_lignum>
191

> <i_i_glide_rotatable_bonds>
2

> <r_i_docking_score>
-7.64082579579661

> <r_i_glide_ligand_efficiency>
-0.263476751579194

> <r_i_glide_ligand_efficiency_sa>
-0.809484056145216

> <r_i_glide_ligand_efficiency_ln>
-1.74955535261285

> <r_i_glide_gscore>
-7.64082579579661

> <r_i_glide_lipo>
-2.96299599896887

> <r_i_glide_hbond>
-0.32

> <r_i_glide_metal>
0

> <r_i_glide_rewards>
-1.7021371265976

> <r_i_glide_evdw>
-42.7547264099121

> <r_i_glide_ecoul>
-4.53547096252441

> <r_i_glide_erotb>
0.224519683895652

> <r_i_glide_esite>
-0.0621553892515326

> <r_i_glide_emodel>
-60.6421454944637

> <r_i_glide_energy>
-47.2901973724365

> <r_i_glide_einternal>
0.645364761352539

> <i_i_glide_confnum>
267

> <i_i_glide_posenum>
267

> <r_i_glide_eff_state_penalty>
0

> <IC50 (nM)>
45

> <PMID>
22959248

> <r_glide_shape_similarity>
0.915107011795044

> <s_m_subgroup_title>
505 training

> <s_m_subgroupid>
pocket_pv

> <b_m_subgroup_collapsed>
0

$$$$
BindingDB_50291090_mol_1
                    3D
 Schrodinger Suite 2021-2.
 40 42  0  0  1  0            999 V2000
   22.0635   -0.1648   53.5039 C   0  0  0  0  0  0
   23.4192   -0.0917   53.8684 C   0  0  0  0  0  0
   21.2654   -1.1098   54.1801 C   0  0  0  0  0  0
   21.5111    0.6493   52.5006 C   0  0  0  0  0  0
   23.9238   -0.8878   54.8251 N   0  0  0  0  0  0
   19.9037   -1.2040   53.8370 C   0  0  0  0  0  0
   24.2574    0.8562   53.2774 N   0  0  0  0  0  0
   20.1591    0.5222   52.1412 C   0  0  0  0  0  0
   19.3418   -0.3884   52.8291 C   0  0  0  0  0  0
   21.7983   -1.8931   55.1374 N   0  0  0  0  0  0
   23.0891   -1.7320   55.4078 C   0  0  0  0  0  0
   25.6386    0.9266   53.3293 C   0  0  0  0  0  0
   28.4071    1.0710   53.4625 C   0  0  0  0  0  0
   19.5807    1.2514   51.1319 O   0  0  0  0  0  0
   18.0316   -0.4407   52.4165 O   0  0  0  0  0  0
   26.2586    2.1833   53.3647 C   0  0  0  0  0  0
   26.4016   -0.2460   53.3006 C   0  0  0  0  0  0
   27.7830   -0.1828   53.3727 C   0  0  0  0  0  0
   27.6525    2.2521   53.4320 C   0  0  0  0  0  0
   29.7505    1.1947   53.5937 O   0  0  0  0  0  0
   17.0750   -0.9668   53.3050 C   0  0  0  0  0  0
   20.4028    1.6401   50.0437 C   0  0  0  0  0  0
   30.4974    0.0036   53.6851 C   0  0  0  0  0  0
   22.1265    1.3670   51.9819 H   0  0  0  0  0  0
   19.2945   -1.9182   54.3708 H   0  0  0  0  0  0
   23.8076    1.6354   52.8345 H   0  0  0  0  0  0
   23.5054   -2.3692   56.1727 H   0  0  0  0  0  0
   25.6825    3.0987   53.3577 H   0  0  0  0  0  0
   25.9331   -1.2151   53.2247 H   0  0  0  0  0  0
   28.3239   -1.1176   53.3673 H   0  0  0  0  0  0
   28.1390    3.2152   53.4886 H   0  0  0  0  0  0
   16.0751   -0.7947   52.9091 H   0  0  0  0  0  0
   17.2037   -2.0420   53.4375 H   0  0  0  0  0  0
   17.1313   -0.4721   54.2719 H   0  0  0  0  0  0
   19.7748    1.9561   49.2134 H   0  0  0  0  0  0
   21.0256    0.8198   49.6860 H   0  0  0  0  0  0
   21.0373    2.4849   50.3162 H   0  0  0  0  0  0
   31.5127    0.3363   53.7763 H   0  0  0  0  0  0
   30.2489   -0.5730   54.5770 H   0  0  0  0  0  0
   30.4261   -0.6261   52.7959 H   0  0  0  0  0  0
  1  2  2  0  0  0
  1  3  1  0  0  0
  1  4  1  0  0  0
  2  5  1  0  0  0
  2  7  1  0  0  0
  3  6  1  0  0  0
  3 10  2  0  0  0
  4  8  2  0  0  0
  4 24  1  0  0  0
  5 11  2  0  0  0
  6  9  2  0  0  0
  6 25  1  0  0  0
  7 12  1  0  0  0
  7 26  1  0  0  0
  8  9  1  0  0  0
  8 14  1  0  0  0
  9 15  1  0  0  0
 10 11  1  0  0  0
 11 27  1  0  0  0
 12 16  2  0  0  0
 12 17  1  0  0  0
 13 18  1  0  0  0
 13 19  2  0  0  0
 13 20  1  0  0  0
 14 22  1  0  0  0
 15 21  1  0  0  0
 16 19  1  0  0  0
 16 28  1  0  0  0
 17 18  2  0  0  0
 17 29  1  0  0  0
 18 30  1  0  0  0
 19 31  1  0  0  0
 20 23  1  0  0  0
 21 32  1  0  0  0
 21 33  1  0  0  0
 21 34  1  0  0  0
 22 35  1  0  0  0
 22 36  1  0  0  0
 22 37  1  0  0  0
 23 38  1  0  0  0
 23 39  1  0  0  0
 23 40  1  0  0  0
M  END
> <s_m_entry_id>
296

> <s_m_entry_name>
pocket_pv.107

> <s_m_Source_Path>
/home/bortolaa/Project/GT/mario-master/docking/set505protein_struct_1_site_1_set505ligs_train

> <s_m_Source_File>
pocket_pv.maegz

> <i_m_Source_File_Index>
107

> <From>
www.bindingDB.org

> <BindingDB Reactant_set_id>
50726944

> <Ligand InChI>
InChI=1S/C17H17N3O3/c1-21-12-6-4-11(5-7-12)20-17-13-8-15(22-2)16(23-3)9-14(13)18-10-19-17/h4-10H,1-3H3,(H,18,19,20)

> <Ligand InChI Key>
AHZHKZBDSLBFFP-UHFFFAOYSA-N

> <BindingDB MonomerID>
50291090

> <BindingDB Ligand Name>
(6,7-Dimethoxy-quinazolin-4-yl)-p-tolyl-amine; hydrochloride::CHEMBL1191611::CHEMBL542733

> <Target Name Assigned by Curator or DataSource>
Epidermal growth factor receptor

> <Target Source Organism According to Curator or DataSource>
Homo sapiens

> <Ki (nM)>


> <Kd (nM)>


> <EC50 (nM)>


> <kon (M-1-s-1)>


> <koff (s-1)>


> <pH>


> <Temp C>


> <Curation/DataSource>
ChEMBL

> <Article DOI>
10.1016/S0960-894X(97)00034-6

> <PMID>


> <PubChem AID>


> <Patent Number>


> <Authors>
Myers, MR; Setzer, NN; Spada, A; Zulli, AL; Hsu, CJ; Zilberstein, A; Johnson, SE; Hook, LE; Jacoski, MV

> <Institution>
TBA

> <Link to Ligand in BindingDB>
http://www.bindingdb.org/bind/chemsearch/marvin/MolStructure.jsp?monomerid=50291090

> <Link to Ligand-Target Pair in BindingDB>
http://www.bindingdb.org/jsp/dbsearch/PrimarySearch_ki.jsp?energyterm=kJ/mole&tag=r21&monomerid=50291090&enzyme=Epidermal+growth+factor+receptor&column=ki&startPg=0&Increment=50&submit=Search

> <Ligand HET ID in PDB>


> <PDB ID(s) for Ligand-Target Complex>


> <PubChem CID>
11232168

> <PubChem SID>
104132642

> <ChEBI ID of Ligand>


> <ChEMBL ID of Ligand>
CHEMBL542733
CHEMBL1191611

> <DrugBank ID of Ligand>


> <IUPHAR_GRAC ID of Ligand>


> <KEGG ID of Ligand>


> <ZINC ID of Ligand>
ZINC03815316

> <Number of Protein Chains in Target (>
1

> <BindingDB Target Chain Sequence>
MRPSGTAGAALLALLAALCPASRALEEKKVCQGTSNKLTQLGTFEDHFLSLQRMFNNCEVVLGNLEITYVQRNYDLSFLKTIQEVAGYVLIALNTVERIPLENLQIIRGNMYYENSYALAVLSNYDANKTGLKELPMRNLQEILHGAVRFSNNPALCNVESIQWRDIVSSDFLSNMSMDFQNHLGSCQKCDPSCPNGSCWGAGEENCQKLTKIICAQQCSGRCRGKSPSDCCHNQCAAGCTGPRESDCLVCRKFRDEATCKDTCPPLMLYNPTTYQMDVNPEGKYSFGATCVKKCPRNYVVTDHGSCVRACGADSYEMEEDGVRKCKKCEGPCRKVCNGIGIGEFKDSLSINATNIKHFKNCTSISGDLHILPVAFRGDSFTHTPPLDPQELDILKTVKEITGFLLIQAWPENRTDLHAFENLEIIRGRTKQHGQFSLAVVSLNITSLGLRSLKEISDGDVIISGNKNLCYANTINWKKLFGTSGQKTKIISNRGENSCKATGQVCHALCSPEGCWGPEPRDCVSCRNVSRGRECVDKCNLLEGEPREFVENSECIQCHPECLPQAMNITCTGRGPDNCIQCAHYIDGPHCVKTCPAGVMGENNTLVWKYADAGHVCHLCHPNCTYGCTGPGLEGCPTNGPKIPSIATGMVGALLLLLVVALGIGLFMRRRHIVRKRTLRRLLQERELVEPLTPSGEAPNQALLRILKETEFKKIKVLGSGAFGTVYKGLWIPEGEKVKIPVAIKELREATSPKANKEILDEAYVMASVDNPHVCRLLGICLTSTVQLITQLMPFGCLLDYVREHKDNIGSQYLLNWCVQIAKGMNYLEDRRLVHRDLAARNVLVKTPQHVKITDFGLAKLLGAEEKEYHAEGGKVPIKWMALESILHRIYTHQSDVWSYGVTVWELMTFGSKPYDGIPASEISSILEKGERLPQPPICTIDVYMIMVKCWMIDADSRPKFRELIIEFSKMARDPQRYLVIQGDERMHLPSPTDSNFYRALMDEEDMDDVVDADEYLIPQQGFFSSPSTSRTPLLSSLSATSNNSTVACIDRNGLQSCPIKEDSFLQRYSSDPTGALTEDSIDDTFLPVPEYINQSVPKRPAGSVQNPVYHNQPLNPAPSRDPHYQDPHSTAVGNPEYLNTVQPTCVNSTFDSPAHWAQKGSHQISLDNPDYQQDFFPKEAKPNGIFKGSTAENAEYLRVAPQSSEFIGA

> <PDB ID(s) of Target Chain>
1IVO,1M14,1M17,1MOX,1XKK,1Z9I,2GS2,2GS6,2ITW,2ITX,2ITY,2J5E,2J5F,2J6M,2RF9,2RGP,3B2V,3BEL,3GOP,3POZ,3QWQ,3VJO,3W2O,3W2P,3W2Q,3W2R,3W2S,3W32,3W33,4G5J,4I23,4JQ7,4JQ8,4JR3,4JRV,4KRO,4LI5,4RJ4,4RJ5,4RJ6,4RJ7,4RJ8,4TKS,4UIP,4UV7,4WKQ,4WRG,4ZAU,5C8K,5C8M,5C8N,5CAL,5CAN,5CAO,5CAP,5CAQ,5CAS,5CAU,5CAV,5EDP,5EDQ,5EDR,5EM5,5EM6,5EM7,5EM8,5FED,5GNK,5HCX,5HCY,5HCZ,5HIB,5HIC,5UGB,5WB7,5WB8,5Y25,6S89,6S8A

> <UniProt (SwissProt) Recommended Name of Target Chain>
Epidermal growth factor receptor

> <UniProt (SwissProt) Entry Name of Target Chain>
EGFR_HUMAN

> <UniProt (SwissProt) Primary ID of Target Chain>
P00533

> <UniProt (SwissProt) Secondary ID(s) of Target Chain>
O00688,O00732,P06268,Q14225,Q68GS5,Q92795,Q9BZS2,Q9GZX1,Q9H2C9,Q9H3C9,Q9UMD7,Q9UMD8,Q9UMG5

> <UniProt (SwissProt) Alternative ID(s) of Target Chain>


> <UniProt (TrEMBL) Submitted Name of Target Chain>


> <UniProt (TrEMBL) Entry Name of Target Chain>


> <UniProt (TrEMBL) Primary ID of Target Chain>


> <UniProt (TrEMBL) Secondary ID(s) of Target Chain>


> <UniProt (TrEMBL) Alternative ID(s) of Target Chain>


> <training label>
6.60206

> <i_lp_mmshare_version>
54117

> <s_epik_input>
W0NIM11PYyhbY0hdMSljKE9bQ0gzXSlbY0hdYyhjMTIpbltjSF1uYzJbTkhdYzNbY0hdW2NIXWMoW2NIXVtjSF0zKU9bQ0gzXQ==

> <s_epik_cmdline>
J2VwaWtfcHl0aG9uJywgJy1waHQnLCAnMC4xJywgJy1waCcsICc3LjQnLCAnLXRuJywgJzgnLCAnLW1hJywgJzIwMCcsICctaW1hZScsICc8aW5maWxlLm1hZT4nLCAnLW9tYWUnLCAnPG91dGZpbGUubWFlPic=

> <r_lp_tautomer_probability>
1

> <r_epik_Ionization_Penalty>
  0.0006

> <r_epik_Ionization_Penalty_Charging>
  0.0000

> <r_epik_Ionization_Penalty_Neutral>
  0.0006

> <r_epik_State_Penalty>
  0.0000

> <r_epik_Charging_Adjusted_Penalty>
0

> <i_epik_Tot_Q>
0

> <i_epik_Tot_abs_Q>
0

> <i_f3d_flags>
0

> <s_lp_Force_Field>
OPLS_2005

> <r_lp_Energy>
23.931338

> <b_lp_Chiralities_Consistent>
1

> <s_lp_Variant>
BindingDB_50291090_mol_1-1

> <s_i_glide_gridfile>
struct_1_site_1

> <i_i_glide_lignum>
127

> <i_i_glide_rotatable_bonds>
5

> <r_i_docking_score>
-7.64049168622719

> <r_i_glide_ligand_efficiency>
-0.33219529070553

> <r_i_glide_ligand_efficiency_sa>
-0.944719217112261

> <r_i_glide_ligand_efficiency_ln>
-1.84754016987799

> <r_i_glide_gscore>
-7.64049168622719

> <r_i_glide_lipo>
-2.64086502679396

> <r_i_glide_hbond>
-0.32

> <r_i_glide_metal>
0

> <r_i_glide_rewards>
-2.44963153018073

> <r_i_glide_evdw>
-37.345588684082

> <r_i_glide_ecoul>
-4.9689302444458

> <r_i_glide_erotb>
0.382623841618481

> <r_i_glide_esite>
0

> <r_i_glide_emodel>
-40.7222579501749

> <r_i_glide_energy>
-42.3145189285278

> <r_i_glide_einternal>
0.370196878910065

> <i_i_glide_confnum>
1

> <i_i_glide_posenum>
35

> <r_i_glide_eff_state_penalty>
0

> <IC50 (nM)>
250

> <r_glide_shape_similarity>
0.779770016670227

> <s_m_subgroup_title>
505 training

> <s_m_subgroupid>
pocket_pv

> <b_m_subgroup_collapsed>
0

$$$$
BindingDB_50428418_mol_1
                    3D
 Schrodinger Suite 2021-2.
 39 41  0  0  1  0            999 V2000
   19.4601    1.2867   51.2374 O   0  0  0  0  0  0
   21.8048   -1.8849   55.1351 N   0  0  0  0  0  0
   20.1663    2.1541   50.3771 C   0  0  0  0  0  0
   21.5014    0.6450   52.4912 C   0  0  0  0  0  0
   19.3355   -0.4015   52.8470 C   0  0  0  0  0  0
   21.2720   -1.1069   54.1764 C   0  0  0  0  0  0
   24.2869    0.8506   53.2750 N   0  0  0  0  0  0
   17.1106   -1.1672   53.3006 C   0  0  0  0  0  0
   18.0078   -0.4373   52.4890 O   0  0  0  0  0  0
   23.0934   -1.7261   55.4051 C   0  0  0  0  0  0
   23.4320   -0.0913   53.8607 C   0  0  0  0  0  0
   22.0700   -0.1650   53.4937 C   0  0  0  0  0  0
   23.9333   -0.8897   54.8170 N   0  0  0  0  0  0
   20.1329    0.5254   52.1643 C   0  0  0  0  0  0
   19.9133   -1.2136   53.8415 C   0  0  0  0  0  0
   25.6801    0.9473   53.3424 C   0  0  0  0  0  0
   26.5053   -0.1921   53.3292 C   0  0  0  0  0  0
   27.8950   -0.0657   53.3817 C   0  0  0  0  0  0
   28.4711    1.2026   53.4466 C   0  0  0  0  0  0
   27.6683    2.3498   53.4242 C   0  0  0  0  0  0
   26.2724    2.2221   53.3671 C   0  0  0  0  0  0
   28.8837   -1.4662   53.3748 Cl  0  0  0  0  0  0
   20.7791    1.3370   49.2549 C   0  0  0  0  0  0
   21.8728    2.5622   48.1456 Br  0  0  0  0  0  0
   29.8051    1.3080   53.5444 F   0  0  0  0  0  0
   20.9101    2.7464   50.9075 H   0  0  0  0  0  0
   19.4581    2.8659   49.9569 H   0  0  0  0  0  0
   22.1256    1.3550   51.9731 H   0  0  0  0  0  0
   23.8210    1.6232   52.8326 H   0  0  0  0  0  0
   16.0927   -0.9952   52.9594 H   0  0  0  0  0  0
   17.3068   -2.2372   53.2349 H   0  0  0  0  0  0
   17.1622   -0.8688   54.3443 H   0  0  0  0  0  0
   23.5084   -2.3577   56.1757 H   0  0  0  0  0  0
   19.3195   -1.9336   54.3849 H   0  0  0  0  0  0
   26.0740   -1.1812   53.2832 H   0  0  0  0  0  0
   28.1197    3.3282   53.4627 H   0  0  0  0  0  0
   25.6633    3.1156   53.3610 H   0  0  0  0  0  0
   20.0159    0.8776   48.6238 H   0  0  0  0  0  0
   21.4343    0.5460   49.6183 H   0  0  0  0  0  0
  1  3  1  0  0  0
  1 14  1  0  0  0
  2  6  1  0  0  0
  2 10  2  0  0  0
  3 23  1  0  0  0
  3 26  1  0  0  0
  3 27  1  0  0  0
  4 12  2  0  0  0
  4 14  1  0  0  0
  4 28  1  0  0  0
  5  9  1  0  0  0
  5 14  2  0  0  0
  5 15  1  0  0  0
  6 12  1  0  0  0
  6 15  2  0  0  0
  7 11  1  0  0  0
  7 16  1  0  0  0
  7 29  1  0  0  0
  8  9  1  0  0  0
  8 30  1  0  0  0
  8 31  1  0  0  0
  8 32  1  0  0  0
 10 13  1  0  0  0
 10 33  1  0  0  0
 11 12  1  0  0  0
 11 13  2  0  0  0
 15 34  1  0  0  0
 16 17  2  0  0  0
 16 21  1  0  0  0
 17 18  1  0  0  0
 17 35  1  0  0  0
 18 19  2  0  0  0
 18 22  1  0  0  0
 19 20  1  0  0  0
 19 25  1  0  0  0
 20 21  2  0  0  0
 20 36  1  0  0  0
 21 37  1  0  0  0
 23 24  1  0  0  0
 23 38  1  0  0  0
 23 39  1  0  0  0
M  END
> <s_m_entry_id>
297

> <s_m_entry_name>
pocket_pv.108

> <s_m_Source_Path>
/home/bortolaa/Project/GT/mario-master/docking/set505protein_struct_1_site_1_set505ligs_train

> <s_m_Source_File>
pocket_pv.maegz

> <i_m_Source_File_Index>
108

> <From>
www.bindingDB.org

> <BindingDB Reactant_set_id>
51049786

> <Ligand InChI>
InChI=1S/C17H14BrClFN3O2/c1-24-15-8-14-11(7-16(15)25-5-4-18)17(22-9-21-14)23-10-2-3-13(20)12(19)6-10/h2-3,6-9H,4-5H2,1H3,(H,21,22,23)

> <Ligand InChI Key>
KOBGVRFQJWPUFX-UHFFFAOYSA-N

> <BindingDB MonomerID>
50428418

> <BindingDB Ligand Name>
CHEMBL2333999

> <Target Name Assigned by Curator or DataSource>
Epidermal growth factor receptor

> <Target Source Organism According to Curator or DataSource>
Homo sapiens

> <Ki (nM)>


> <Kd (nM)>


> <EC50 (nM)>


> <kon (M-1-s-1)>


> <koff (s-1)>


> <pH>


> <Temp C>


> <Curation/DataSource>
ChEMBL

> <Article DOI>
10.1016/j.ejmech.2012.07.036

> <PubChem AID>


> <Patent Number>


> <Authors>
Lu, S; Zheng, W; Ji, L; Luo, Q; Hao, X; Li, X; Wang, F

> <Institution>
Chinese Academy of Sciences

> <Link to Ligand in BindingDB>
http://www.bindingdb.org/bind/chemsearch/marvin/MolStructure.jsp?monomerid=50428418

> <Link to Ligand-Target Pair in BindingDB>
http://www.bindingdb.org/jsp/dbsearch/PrimarySearch_ki.jsp?energyterm=kJ/mole&tag=r21&monomerid=50428418&enzyme=Epidermal+growth+factor+receptor&column=ki&startPg=0&Increment=50&submit=Search

> <Ligand HET ID in PDB>


> <PDB ID(s) for Ligand-Target Complex>


> <PubChem CID>
19077515

> <PubChem SID>
164157293

> <ChEBI ID of Ligand>


> <ChEMBL ID of Ligand>
CHEMBL2333999

> <DrugBank ID of Ligand>


> <IUPHAR_GRAC ID of Ligand>


> <KEGG ID of Ligand>


> <ZINC ID of Ligand>
ZINC95591756

> <Number of Protein Chains in Target (>
1

> <BindingDB Target Chain Sequence>
MRPSGTAGAALLALLAALCPASRALEEKKVCQGTSNKLTQLGTFEDHFLSLQRMFNNCEVVLGNLEITYVQRNYDLSFLKTIQEVAGYVLIALNTVERIPLENLQIIRGNMYYENSYALAVLSNYDANKTGLKELPMRNLQEILHGAVRFSNNPALCNVESIQWRDIVSSDFLSNMSMDFQNHLGSCQKCDPSCPNGSCWGAGEENCQKLTKIICAQQCSGRCRGKSPSDCCHNQCAAGCTGPRESDCLVCRKFRDEATCKDTCPPLMLYNPTTYQMDVNPEGKYSFGATCVKKCPRNYVVTDHGSCVRACGADSYEMEEDGVRKCKKCEGPCRKVCNGIGIGEFKDSLSINATNIKHFKNCTSISGDLHILPVAFRGDSFTHTPPLDPQELDILKTVKEITGFLLIQAWPENRTDLHAFENLEIIRGRTKQHGQFSLAVVSLNITSLGLRSLKEISDGDVIISGNKNLCYANTINWKKLFGTSGQKTKIISNRGENSCKATGQVCHALCSPEGCWGPEPRDCVSCRNVSRGRECVDKCNLLEGEPREFVENSECIQCHPECLPQAMNITCTGRGPDNCIQCAHYIDGPHCVKTCPAGVMGENNTLVWKYADAGHVCHLCHPNCTYGCTGPGLEGCPTNGPKIPSIATGMVGALLLLLVVALGIGLFMRRRHIVRKRTLRRLLQERELVEPLTPSGEAPNQALLRILKETEFKKIKVLGSGAFGTVYKGLWIPEGEKVKIPVAIKELREATSPKANKEILDEAYVMASVDNPHVCRLLGICLTSTVQLITQLMPFGCLLDYVREHKDNIGSQYLLNWCVQIAKGMNYLEDRRLVHRDLAARNVLVKTPQHVKITDFGLAKLLGAEEKEYHAEGGKVPIKWMALESILHRIYTHQSDVWSYGVTVWELMTFGSKPYDGIPASEISSILEKGERLPQPPICTIDVYMIMVKCWMIDADSRPKFRELIIEFSKMARDPQRYLVIQGDERMHLPSPTDSNFYRALMDEEDMDDVVDADEYLIPQQGFFSSPSTSRTPLLSSLSATSNNSTVACIDRNGLQSCPIKEDSFLQRYSSDPTGALTEDSIDDTFLPVPEYINQSVPKRPAGSVQNPVYHNQPLNPAPSRDPHYQDPHSTAVGNPEYLNTVQPTCVNSTFDSPAHWAQKGSHQISLDNPDYQQDFFPKEAKPNGIFKGSTAENAEYLRVAPQSSEFIGA

> <PDB ID(s) of Target Chain>
1IVO,1M14,1M17,1MOX,1XKK,1Z9I,2GS2,2GS6,2ITW,2ITX,2ITY,2J5E,2J5F,2J6M,2RF9,2RGP,3B2V,3BEL,3GOP,3POZ,3QWQ,3VJO,3W2O,3W2P,3W2Q,3W2R,3W2S,3W32,3W33,4G5J,4I23,4JQ7,4JQ8,4JR3,4JRV,4KRO,4LI5,4RJ4,4RJ5,4RJ6,4RJ7,4RJ8,4TKS,4UIP,4UV7,4WKQ,4WRG,4ZAU,5C8K,5C8M,5C8N,5CAL,5CAN,5CAO,5CAP,5CAQ,5CAS,5CAU,5CAV,5EDP,5EDQ,5EDR,5EM5,5EM6,5EM7,5EM8,5FED,5GNK,5HCX,5HCY,5HCZ,5HIB,5HIC,5UGB,5WB7,5WB8,5Y25,6S89,6S8A

> <UniProt (SwissProt) Recommended Name of Target Chain>
Epidermal growth factor receptor

> <UniProt (SwissProt) Entry Name of Target Chain>
EGFR_HUMAN

> <UniProt (SwissProt) Primary ID of Target Chain>
P00533

> <UniProt (SwissProt) Secondary ID(s) of Target Chain>
O00688,O00732,P06268,Q14225,Q68GS5,Q92795,Q9BZS2,Q9GZX1,Q9H2C9,Q9H3C9,Q9UMD7,Q9UMD8,Q9UMG5

> <UniProt (SwissProt) Alternative ID(s) of Target Chain>


> <UniProt (TrEMBL) Submitted Name of Target Chain>


> <UniProt (TrEMBL) Entry Name of Target Chain>


> <UniProt (TrEMBL) Primary ID of Target Chain>


> <UniProt (TrEMBL) Secondary ID(s) of Target Chain>


> <UniProt (TrEMBL) Alternative ID(s) of Target Chain>


> <training label>
7.74473

> <i_lp_mmshare_version>
54117

> <s_epik_input>
QnJbQ0gyXVtDSDJdT2MoYyhbY0hdMSlPW0NIM10pW2NIXWMoYzEyKWMobltjSF1uMilbTkhdYzNbY0hdYyhDbCljKEYpW2NIXVtjSF0z

> <s_epik_cmdline>
J2VwaWtfcHl0aG9uJywgJy1waHQnLCAnMC4xJywgJy1waCcsICc3LjQnLCAnLXRuJywgJzgnLCAnLW1hJywgJzIwMCcsICctaW1hZScsICc8aW5maWxlLm1hZT4nLCAnLW9tYWUnLCAnPG91dGZpbGUubWFlPic=

> <r_lp_tautomer_probability>
1

> <r_epik_Ionization_Penalty>
  0.0004

> <r_epik_Ionization_Penalty_Charging>
  0.0000

> <r_epik_Ionization_Penalty_Neutral>
  0.0004

> <r_epik_State_Penalty>
  0.0000

> <r_epik_Charging_Adjusted_Penalty>
0

> <i_epik_Tot_Q>
0

> <i_epik_Tot_abs_Q>
0

> <i_f3d_flags>
0

> <s_lp_Force_Field>
OPLS_2005

> <r_lp_Energy>
19.931372

> <b_lp_Chiralities_Consistent>
1

> <s_lp_Variant>
BindingDB_50428418_mol_1-1

> <s_i_glide_gridfile>
struct_1_site_1

> <i_i_glide_lignum>
212

> <i_i_glide_rotatable_bonds>
6

> <r_i_docking_score>
-7.63007574537202

> <r_i_glide_ligand_efficiency>
-0.305203029814881

> <r_i_glide_ligand_efficiency_sa>
-0.892419071977492

> <r_i_glide_ligand_efficiency_ln>
-1.80855660657194

> <r_i_glide_gscore>
-7.63007574537202

> <r_i_glide_lipo>
-3.18506536987196

> <r_i_glide_hbond>
-0.32

> <r_i_glide_metal>
0

> <r_i_glide_rewards>
-1.66942558949633

> <r_i_glide_evdw>
-43.2244911193848

> <r_i_glide_ecoul>
-4.433265209198

> <r_i_glide_erotb>
0.436114773028903

> <r_i_glide_esite>
-0.0654852216836945

> <r_i_glide_emodel>
-52.3400657323347

> <r_i_glide_energy>
-47.6577563285828

> <r_i_glide_einternal>
1.32749223709106

> <i_i_glide_confnum>
1

> <i_i_glide_posenum>
6

> <r_i_glide_eff_state_penalty>
0

> <IC50 (nM)>
18

> <PMID>
22867529

> <r_glide_shape_similarity>
0.826791822910309

> <s_m_subgroup_title>
505 training

> <s_m_subgroupid>
pocket_pv

> <b_m_subgroup_collapsed>
0

$$$$
BindingDB_3295_mol_1
                    3D
 Schrodinger Suite 2021-2.
 32 34  0  0  1  0            999 V2000
   21.5066    0.6397   52.4922 C   0  0  0  0  0  0
   20.1463    0.5100   52.1426 C   0  0  0  0  0  0
   19.3439   -0.4022   52.8443 C   0  0  0  0  0  0
   19.9107   -1.2115   53.8415 C   0  0  0  0  0  0
   22.0714   -0.1679   53.5004 C   0  0  0  0  0  0
   21.2717   -1.1114   54.1813 C   0  0  0  0  0  0
   23.4348   -0.0960   53.8642 C   0  0  0  0  0  0
   23.0944   -1.7320   55.4080 C   0  0  0  0  0  0
   23.9357   -0.8937   54.8212 N   0  0  0  0  0  0
   21.8038   -1.8915   55.1387 N   0  0  0  0  0  0
   24.2879    0.8478   53.2753 N   0  0  0  0  0  0
   23.8221    1.6220   52.8341 H   0  0  0  0  0  0
   25.6830    0.9474   53.3431 C   0  0  0  0  0  0
   27.6689    2.3588   53.4235 C   0  0  0  0  0  0
   26.2728    2.2233   53.3696 C   0  0  0  0  0  0
   26.5147   -0.1888   53.3339 C   0  0  0  0  0  0
   27.9107   -0.0502   53.3831 C   0  0  0  0  0  0
   28.4907    1.2239   53.4379 C   0  0  0  0  0  0
   19.5485    1.2267   51.1373 O   0  0  0  0  0  0
   20.3627    1.6338   50.0501 C   0  0  0  0  0  0
   29.0153   -1.5900   53.3746 Br  0  0  0  0  0  0
   22.1221    1.3513   51.9649 H   0  0  0  0  0  0
   18.2967   -0.5002   52.5977 H   0  0  0  0  0  0
   19.2861   -1.9155   54.3711 H   0  0  0  0  0  0
   23.5071   -2.3702   56.1747 H   0  0  0  0  0  0
   28.1079    3.3461   53.4545 H   0  0  0  0  0  0
   25.6615    3.1153   53.3603 H   0  0  0  0  0  0
   26.0886   -1.1800   53.2834 H   0  0  0  0  0  0
   29.5659    1.3333   53.4798 H   0  0  0  0  0  0
   19.7272    1.9501   49.2230 H   0  0  0  0  0  0
   20.9925    0.8184   49.6888 H   0  0  0  0  0  0
   20.9934    2.4803   50.3236 H   0  0  0  0  0  0
  1  2  1  0  0  0
  1  5  2  0  0  0
  1 22  1  0  0  0
  2  3  2  0  0  0
  2 19  1  0  0  0
  3  4  1  0  0  0
  3 23  1  0  0  0
  4  6  2  0  0  0
  4 24  1  0  0  0
  5  6  1  0  0  0
  5  7  1  0  0  0
  6 10  1  0  0  0
  7  9  2  0  0  0
  7 11  1  0  0  0
  8  9  1  0  0  0
  8 10  2  0  0  0
  8 25  1  0  0  0
 11 12  1  0  0  0
 11 13  1  0  0  0
 13 15  2  0  0  0
 13 16  1  0  0  0
 14 15  1  0  0  0
 14 18  2  0  0  0
 14 26  1  0  0  0
 15 27  1  0  0  0
 16 17  2  0  0  0
 16 28  1  0  0  0
 17 18  1  0  0  0
 17 21  1  0  0  0
 18 29  1  0  0  0
 19 20  1  0  0  0
 20 30  1  0  0  0
 20 31  1  0  0  0
 20 32  1  0  0  0
M  END
> <s_m_entry_id>
298

> <s_m_entry_name>
pocket_pv.109

> <s_m_Source_Path>
/home/bortolaa/Project/GT/mario-master/docking/set505protein_struct_1_site_1_set505ligs_train

> <s_m_Source_File>
pocket_pv.maegz

> <i_m_Source_File_Index>
109

> <From>
www.bindingDB.org

> <BindingDB Reactant_set_id>
50210588

> <Ligand InChI>
InChI=1S/C15H12BrN3O/c1-20-12-5-6-14-13(8-12)15(18-9-17-14)19-11-4-2-3-10(16)7-11/h2-9H,1H3,(H,17,18,19)

> <Ligand InChI Key>
LDTMDWOXHYGMAM-UHFFFAOYSA-N

> <BindingDB MonomerID>
3295

> <BindingDB Ligand Name>
4-Anilinoquinazoline deriv. 46::CHEMBL52197::N-(3-bromophenyl)-6-methoxyquinazolin-4-amine

> <Target Name Assigned by Curator or DataSource>
Epidermal growth factor receptor

> <Target Source Organism According to Curator or DataSource>
Homo sapiens

> <Ki (nM)>


> <Kd (nM)>


> <EC50 (nM)>


> <kon (M-1-s-1)>


> <koff (s-1)>


> <pH>


> <Temp C>


> <Curation/DataSource>
ChEMBL

> <Article DOI>
10.1021/jm070654j

> <PubChem AID>


> <Patent Number>


> <Authors>
Kolb, P; Huang, D; Dey, F; Caflisch, A

> <Institution>
University of Zurich

> <Link to Ligand in BindingDB>
http://www.bindingdb.org/bind/chemsearch/marvin/MolStructure.jsp?monomerid=3295

> <Link to Ligand-Target Pair in BindingDB>
http://www.bindingdb.org/jsp/dbsearch/PrimarySearch_ki.jsp?energyterm=kJ/mole&tag=r21&monomerid=3295&enzyme=Epidermal+growth+factor+receptor&column=ki&startPg=0&Increment=50&submit=Search

> <Ligand HET ID in PDB>


> <PDB ID(s) for Ligand-Target Complex>


> <PubChem CID>
5328043

> <PubChem SID>
8033037

> <ChEBI ID of Ligand>


> <ChEMBL ID of Ligand>
CHEMBL52197

> <DrugBank ID of Ligand>


> <IUPHAR_GRAC ID of Ligand>


> <KEGG ID of Ligand>


> <ZINC ID of Ligand>
ZINC03815183

> <Number of Protein Chains in Target (>
1

> <BindingDB Target Chain Sequence>
MRPSGTAGAALLALLAALCPASRALEEKKVCQGTSNKLTQLGTFEDHFLSLQRMFNNCEVVLGNLEITYVQRNYDLSFLKTIQEVAGYVLIALNTVERIPLENLQIIRGNMYYENSYALAVLSNYDANKTGLKELPMRNLQEILHGAVRFSNNPALCNVESIQWRDIVSSDFLSNMSMDFQNHLGSCQKCDPSCPNGSCWGAGEENCQKLTKIICAQQCSGRCRGKSPSDCCHNQCAAGCTGPRESDCLVCRKFRDEATCKDTCPPLMLYNPTTYQMDVNPEGKYSFGATCVKKCPRNYVVTDHGSCVRACGADSYEMEEDGVRKCKKCEGPCRKVCNGIGIGEFKDSLSINATNIKHFKNCTSISGDLHILPVAFRGDSFTHTPPLDPQELDILKTVKEITGFLLIQAWPENRTDLHAFENLEIIRGRTKQHGQFSLAVVSLNITSLGLRSLKEISDGDVIISGNKNLCYANTINWKKLFGTSGQKTKIISNRGENSCKATGQVCHALCSPEGCWGPEPRDCVSCRNVSRGRECVDKCNLLEGEPREFVENSECIQCHPECLPQAMNITCTGRGPDNCIQCAHYIDGPHCVKTCPAGVMGENNTLVWKYADAGHVCHLCHPNCTYGCTGPGLEGCPTNGPKIPSIATGMVGALLLLLVVALGIGLFMRRRHIVRKRTLRRLLQERELVEPLTPSGEAPNQALLRILKETEFKKIKVLGSGAFGTVYKGLWIPEGEKVKIPVAIKELREATSPKANKEILDEAYVMASVDNPHVCRLLGICLTSTVQLITQLMPFGCLLDYVREHKDNIGSQYLLNWCVQIAKGMNYLEDRRLVHRDLAARNVLVKTPQHVKITDFGLAKLLGAEEKEYHAEGGKVPIKWMALESILHRIYTHQSDVWSYGVTVWELMTFGSKPYDGIPASEISSILEKGERLPQPPICTIDVYMIMVKCWMIDADSRPKFRELIIEFSKMARDPQRYLVIQGDERMHLPSPTDSNFYRALMDEEDMDDVVDADEYLIPQQGFFSSPSTSRTPLLSSLSATSNNSTVACIDRNGLQSCPIKEDSFLQRYSSDPTGALTEDSIDDTFLPVPEYINQSVPKRPAGSVQNPVYHNQPLNPAPSRDPHYQDPHSTAVGNPEYLNTVQPTCVNSTFDSPAHWAQKGSHQISLDNPDYQQDFFPKEAKPNGIFKGSTAENAEYLRVAPQSSEFIGA

> <PDB ID(s) of Target Chain>
1IVO,1M14,1M17,1MOX,1XKK,1Z9I,2GS2,2GS6,2ITW,2ITX,2ITY,2J5E,2J5F,2J6M,2RF9,2RGP,3B2V,3BEL,3GOP,3POZ,3QWQ,3VJO,3W2O,3W2P,3W2Q,3W2R,3W2S,3W32,3W33,4G5J,4I23,4JQ7,4JQ8,4JR3,4JRV,4KRO,4LI5,4RJ4,4RJ5,4RJ6,4RJ7,4RJ8,4TKS,4UIP,4UV7,4WKQ,4WRG,4ZAU,5C8K,5C8M,5C8N,5CAL,5CAN,5CAO,5CAP,5CAQ,5CAS,5CAU,5CAV,5EDP,5EDQ,5EDR,5EM5,5EM6,5EM7,5EM8,5FED,5GNK,5HCX,5HCY,5HCZ,5HIB,5HIC,5UGB,5WB7,5WB8,5Y25,6S89,6S8A

> <UniProt (SwissProt) Recommended Name of Target Chain>
Epidermal growth factor receptor

> <UniProt (SwissProt) Entry Name of Target Chain>
EGFR_HUMAN

> <UniProt (SwissProt) Primary ID of Target Chain>
P00533

> <UniProt (SwissProt) Secondary ID(s) of Target Chain>
O00688,O00732,P06268,Q14225,Q68GS5,Q92795,Q9BZS2,Q9GZX1,Q9H2C9,Q9H3C9,Q9UMD7,Q9UMD8,Q9UMG5

> <UniProt (SwissProt) Alternative ID(s) of Target Chain>


> <UniProt (TrEMBL) Submitted Name of Target Chain>


> <UniProt (TrEMBL) Entry Name of Target Chain>


> <UniProt (TrEMBL) Primary ID of Target Chain>


> <UniProt (TrEMBL) Secondary ID(s) of Target Chain>


> <UniProt (TrEMBL) Alternative ID(s) of Target Chain>


> <training label>
6.44977

> <i_lp_mmshare_version>
54117

> <s_epik_input>
W0NIM11PYyhbY0hdMSlbY0hdW2NIXWMoYzEyKW5bY0hdbmMyW05IXWMzW2NIXVtjSF1bY0hdYyhCcilbY0hdMw==

> <s_epik_cmdline>
J2VwaWtfcHl0aG9uJywgJy1waHQnLCAnMC4xJywgJy1waCcsICc3LjQnLCAnLXRuJywgJzgnLCAnLW1hJywgJzIwMCcsICctaW1hZScsICc8aW5maWxlLm1hZT4nLCAnLW9tYWUnLCAnPG91dGZpbGUubWFlPic=

> <r_lp_tautomer_probability>
1

> <r_epik_Ionization_Penalty>
  0.0003

> <r_epik_Ionization_Penalty_Charging>
  0.0000

> <r_epik_Ionization_Penalty_Neutral>
  0.0003

> <r_epik_State_Penalty>
  0.0000

> <r_epik_Charging_Adjusted_Penalty>
0

> <i_epik_Tot_Q>
0

> <i_epik_Tot_abs_Q>
0

> <i_f3d_flags>
0

> <s_lp_Force_Field>
OPLS_2005

> <r_lp_Energy>
15.795527

> <b_lp_Chiralities_Consistent>
1

> <s_lp_Variant>
BindingDB_3295_mol_1-1

> <s_i_glide_gridfile>
struct_1_site_1

> <i_i_glide_lignum>
117

> <i_i_glide_rotatable_bonds>
3

> <r_i_docking_score>
-7.62918512769932

> <r_i_glide_ligand_efficiency>
-0.381459256384966

> <r_i_glide_ligand_efficiency_sa>
-1.03543972451058

> <r_i_glide_ligand_efficiency_ln>
-1.90933341009696

> <r_i_glide_gscore>
-7.62918512769932

> <r_i_glide_lipo>
-2.74204191634786

> <r_i_glide_hbond>
-0.32

> <r_i_glide_metal>
0

> <r_i_glide_rewards>
-2.32165149566945

> <r_i_glide_evdw>
-37.0905265808105

> <r_i_glide_ecoul>
-4.90631771087646

> <r_i_glide_erotb>
0.344982269989982

> <r_i_glide_esite>
0

> <r_i_glide_emodel>
-37.9913165255682

> <r_i_glide_energy>
-41.996844291687

> <r_i_glide_einternal>
1.08602571487427

> <i_i_glide_confnum>
1

> <i_i_glide_posenum>
390

> <r_i_glide_eff_state_penalty>
0

> <IC50 (nM)>
355

> <PMID>
18271520

> <r_glide_shape_similarity>
0.757506668567657

> <s_m_subgroup_title>
505 training

> <s_m_subgroupid>
pocket_pv

> <b_m_subgroup_collapsed>
0

$$$$
/home/bortolaa/Project/GT/mario-master/ligands/set505ligs_train.sdf:249
                    3D
 Schrodinger Suite 2021-2.
 62 65  0  0  1  0            999 V2000
   20.2204    1.6537   49.8872 C   0  0  0  0  0  0
   19.3431    2.3687   48.9574 C   0  0  0  0  0  0
   18.1377    2.8900   49.2825 C   0  0  0  0  0  0
   17.2398    3.6316   48.3010 C   0  0  0  0  0  0
   21.3908    1.3842   49.6122 O   0  0  0  0  0  0
   19.6319    1.3020   51.0573 N   0  0  0  0  0  0
   21.7954   -1.9030   55.1436 N   0  0  0  0  0  0
   23.0948   -1.7510   55.4167 C   0  0  0  0  0  0
   23.9423   -0.9068   54.8327 N   0  0  0  0  0  0
   23.4419   -0.1009   53.8717 C   0  0  0  0  0  0
   22.0771   -0.1701   53.5035 C   0  0  0  0  0  0
   21.5420    0.6462   52.4849 C   0  0  0  0  0  0
   20.1898    0.5285   52.1149 C   0  0  0  0  0  0
   19.3381   -0.3449   52.8230 C   0  0  0  0  0  0
   19.8849   -1.1822   53.8371 C   0  0  0  0  0  0
   21.2598   -1.1137   54.1820 C   0  0  0  0  0  0
   18.0105   -0.2894   52.4439 O   0  0  0  0  0  0
   15.5011   -2.0538   52.0577 O   0  0  0  0  0  0
   16.6056   -2.1623   52.9732 C   0  0  0  0  0  0
   16.9958   -0.7235   53.3403 C   0  0  2  0  0  0
   15.7162    0.0626   53.0435 C   0  0  0  0  0  0
   15.1656   -0.6780   51.8294 C   0  0  0  0  0  0
   24.2880    0.8520   53.2774 N   0  0  0  0  0  0
   25.6839    0.9526   53.3418 C   0  0  0  0  0  0
   26.5136   -0.1911   53.3329 C   0  0  0  0  0  0
   27.9162   -0.0524   53.3819 C   0  0  0  0  0  0
   28.5024    1.2300   53.4401 C   0  0  0  0  0  0
   27.6770    2.3718   53.4280 C   0  0  0  0  0  0
   26.2743    2.2358   53.3708 C   0  0  0  0  0  0
   28.7440   -1.2443   53.3677 C   0  0  0  0  0  0
   29.3736   -2.2903   53.3597 C   0  0  0  0  0  0
   17.0274    5.0652   48.6825 N   0  3  0  0  0  0
   18.2805    5.8772   48.6704 C   0  0  0  0  0  0
   15.9525    5.7040   47.8700 C   0  0  0  0  0  0
   19.6942    2.4797   47.9413 H   0  0  0  0  0  0
   17.7421    2.8113   50.2849 H   0  0  0  0  0  0
   17.6585    3.5795   47.2944 H   0  0  0  0  0  0
   16.2807    3.1128   48.2712 H   0  0  0  0  0  0
   18.6331    1.4430   51.1248 H   0  0  0  0  0  0
   23.5063   -2.4000   56.1742 H   0  0  0  0  0  0
   22.1704    1.3498   51.9614 H   0  0  0  0  0  0
   19.2566   -1.8739   54.3768 H   0  0  0  0  0  0
   17.4456   -2.7258   52.5747 H   0  0  0  0  0  0
   16.2839   -2.7142   53.8512 H   0  0  0  0  0  0
   17.3009   -0.6249   54.3810 H   0  0  0  0  0  0
   15.0215   -0.0319   53.8786 H   0  0  0  0  0  0
   15.8842    1.1216   52.8518 H   0  0  0  0  0  0
   14.0913   -0.5412   51.7030 H   0  0  0  0  0  0
   15.6634   -0.3403   50.9187 H   0  0  0  0  0  0
   23.8199    1.6266   52.8296 H   0  0  0  0  0  0
   26.0779   -1.1786   53.2802 H   0  0  0  0  0  0
   29.5776    1.3440   53.4816 H   0  0  0  0  0  0
   28.1166    3.3585   53.4606 H   0  0  0  0  0  0
   25.6621    3.1270   53.3624 H   0  0  0  0  0  0
   29.8897   -3.2238   53.3618 H   0  0  0  0  0  0
   18.7208    5.9030   47.6738 H   0  0  0  0  0  0
   18.0756    6.9035   48.9752 H   0  0  0  0  0  0
   19.0206    5.4764   49.3631 H   0  0  0  0  0  0
   16.2101    5.7019   46.8098 H   0  0  0  0  0  0
   15.0067    5.1746   47.9960 H   0  0  0  0  0  0
   15.7929    6.7385   48.1771 H   0  0  0  0  0  0
   16.6886    5.0870   49.6422 H   0  0  0  0  0  0
  1  2  1  0  0  0
  1  5  2  0  0  0
  1  6  1  0  0  0
  2  3  2  0  0  0
  2 35  1  0  0  0
  3  4  1  0  0  0
  3 36  1  0  0  0
  4 32  1  0  0  0
  4 37  1  0  0  0
  4 38  1  0  0  0
  6 13  1  0  0  0
  6 39  1  0  0  0
  7  8  1  0  0  0
  7 16  2  0  0  0
  8  9  2  0  0  0
  8 40  1  0  0  0
  9 10  1  0  0  0
 10 11  2  0  0  0
 10 23  1  0  0  0
 11 12  1  0  0  0
 11 16  1  0  0  0
 12 13  2  0  0  0
 12 41  1  0  0  0
 13 14  1  0  0  0
 14 15  2  0  0  0
 14 17  1  0  0  0
 15 16  1  0  0  0
 15 42  1  0  0  0
 17 20  1  0  0  0
 18 19  1  0  0  0
 18 22  1  0  0  0
 19 20  1  0  0  0
 19 43  1  0  0  0
 19 44  1  0  0  0
 20 21  1  0  0  0
 20 45  1  0  0  0
 21 22  1  0  0  0
 21 46  1  0  0  0
 21 47  1  0  0  0
 22 48  1  0  0  0
 22 49  1  0  0  0
 23 24  1  0  0  0
 23 50  1  0  0  0
 24 25  1  0  0  0
 24 29  2  0  0  0
 25 26  2  0  0  0
 25 51  1  0  0  0
 26 27  1  0  0  0
 26 30  1  0  0  0
 27 28  2  0  0  0
 27 52  1  0  0  0
 28 29  1  0  0  0
 28 53  1  0  0  0
 29 54  1  0  0  0
 30 31  3  0  0  0
 31 55  1  0  0  0
 32 33  1  0  0  0
 32 34  1  0  0  0
 32 62  1  0  0  0
 33 56  1  0  0  0
 33 57  1  0  0  0
 33 58  1  0  0  0
 34 59  1  0  0  0
 34 60  1  0  0  0
 34 61  1  0  0  0
M  CHG  1  32   1
M  END
> <s_m_entry_id>
299

> <s_m_entry_name>
pocket_pv.110

> <s_m_Source_Path>
/home/bortolaa/Project/GT/mario-master/docking/set505protein_struct_1_site_1_set505ligs_train

> <s_m_Source_File>
pocket_pv.maegz

> <i_m_Source_File_Index>
110

> <From>
www.bindingDB.org

> <BindingDB Reactant_set_id>
50419166

> <Ligand InChI>
InChI=1S/C26H27N5O3/c1-4-18-7-5-8-19(13-18)29-26-21-14-23(30-25(32)9-6-11-31(2)3)24(15-22(21)27-17-28-26)34-20-10-12-33-16-20/h1,5-9,13-15,17,20H,10-12,16H2,2-3H3,(H,30,32)(H,27,28,29)/b9-6+/t20-/m0/s1

> <Ligand InChI Key>
XOLQJGVNGIZVGW-ZGBFETHSSA-N

> <BindingDB MonomerID>
50123190

> <BindingDB Ligand Name>
CHEMBL3622645::US9388170, 13

> <Target Name Assigned by Curator or DataSource>
Epidermal growth factor receptor

> <Target Source Organism According to Curator or DataSource>
Homo sapiens

> <Ki (nM)>


> <Kd (nM)>


> <EC50 (nM)>


> <kon (M-1-s-1)>


> <koff (s-1)>


> <pH>


> <Temp C>


> <Curation/DataSource>
ChEMBL

> <Article DOI>
10.1016/j.ejmech.2015.08.026

> <PubChem AID>


> <Patent Number>


> <Authors>
Zhang, L; Yang, Y; Zhou, H; Zheng, Q; Li, Y; Zheng, S; Zhao, S; Chen, D; Fan, C

> <Institution>
Qilu Pharmaceutical Co, Ltd

> <Link to Ligand in BindingDB>
http://www.bindingdb.org/bind/chemsearch/marvin/MolStructure.jsp?monomerid=50123190

> <Link to Ligand-Target Pair in BindingDB>
http://www.bindingdb.org/jsp/dbsearch/PrimarySearch_ki.jsp?energyterm=kJ/mole&tag=r21&monomerid=50123190&enzyme=Epidermal+growth+factor+receptor&column=ki&startPg=0&Increment=50&submit=Search

> <Ligand HET ID in PDB>


> <PDB ID(s) for Ligand-Target Complex>


> <PubChem CID>
72201345

> <PubChem SID>
321901923

> <ChEBI ID of Ligand>


> <ChEMBL ID of Ligand>
CHEMBL3622645

> <DrugBank ID of Ligand>


> <IUPHAR_GRAC ID of Ligand>


> <KEGG ID of Ligand>


> <ZINC ID of Ligand>


> <Number of Protein Chains in Target (>
1

> <BindingDB Target Chain Sequence>
MRPSGTAGAALLALLAALCPASRALEEKKVCQGTSNKLTQLGTFEDHFLSLQRMFNNCEVVLGNLEITYVQRNYDLSFLKTIQEVAGYVLIALNTVERIPLENLQIIRGNMYYENSYALAVLSNYDANKTGLKELPMRNLQEILHGAVRFSNNPALCNVESIQWRDIVSSDFLSNMSMDFQNHLGSCQKCDPSCPNGSCWGAGEENCQKLTKIICAQQCSGRCRGKSPSDCCHNQCAAGCTGPRESDCLVCRKFRDEATCKDTCPPLMLYNPTTYQMDVNPEGKYSFGATCVKKCPRNYVVTDHGSCVRACGADSYEMEEDGVRKCKKCEGPCRKVCNGIGIGEFKDSLSINATNIKHFKNCTSISGDLHILPVAFRGDSFTHTPPLDPQELDILKTVKEITGFLLIQAWPENRTDLHAFENLEIIRGRTKQHGQFSLAVVSLNITSLGLRSLKEISDGDVIISGNKNLCYANTINWKKLFGTSGQKTKIISNRGENSCKATGQVCHALCSPEGCWGPEPRDCVSCRNVSRGRECVDKCNLLEGEPREFVENSECIQCHPECLPQAMNITCTGRGPDNCIQCAHYIDGPHCVKTCPAGVMGENNTLVWKYADAGHVCHLCHPNCTYGCTGPGLEGCPTNGPKIPSIATGMVGALLLLLVVALGIGLFMRRRHIVRKRTLRRLLQERELVEPLTPSGEAPNQALLRILKETEFKKIKVLGSGAFGTVYKGLWIPEGEKVKIPVAIKELREATSPKANKEILDEAYVMASVDNPHVCRLLGICLTSTVQLITQLMPFGCLLDYVREHKDNIGSQYLLNWCVQIAKGMNYLEDRRLVHRDLAARNVLVKTPQHVKITDFGLAKLLGAEEKEYHAEGGKVPIKWMALESILHRIYTHQSDVWSYGVTVWELMTFGSKPYDGIPASEISSILEKGERLPQPPICTIDVYMIMVKCWMIDADSRPKFRELIIEFSKMARDPQRYLVIQGDERMHLPSPTDSNFYRALMDEEDMDDVVDADEYLIPQQGFFSSPSTSRTPLLSSLSATSNNSTVACIDRNGLQSCPIKEDSFLQRYSSDPTGALTEDSIDDTFLPVPEYINQSVPKRPAGSVQNPVYHNQPLNPAPSRDPHYQDPHSTAVGNPEYLNTVQPTCVNSTFDSPAHWAQKGSHQISLDNPDYQQDFFPKEAKPNGIFKGSTAENAEYLRVAPQSSEFIGA

> <PDB ID(s) of Target Chain>
1IVO,1M14,1M17,1MOX,1XKK,1Z9I,2GS2,2GS6,2ITW,2ITX,2ITY,2J5E,2J5F,2J6M,2RF9,2RGP,3B2V,3BEL,3GOP,3POZ,3QWQ,3VJO,3W2O,3W2P,3W2Q,3W2R,3W2S,3W32,3W33,4G5J,4I23,4JQ7,4JQ8,4JR3,4JRV,4KRO,4LI5,4RJ4,4RJ5,4RJ6,4RJ7,4RJ8,4TKS,4UIP,4UV7,4WKQ,4WRG,4ZAU,5C8K,5C8M,5C8N,5CAL,5CAN,5CAO,5CAP,5CAQ,5CAS,5CAU,5CAV,5EDP,5EDQ,5EDR,5EM5,5EM6,5EM7,5EM8,5FED,5GNK,5HCX,5HCY,5HCZ,5HIB,5HIC,5UGB,5WB7,5WB8,5Y25,6S89,6S8A

> <UniProt (SwissProt) Recommended Name of Target Chain>
Epidermal growth factor receptor

> <UniProt (SwissProt) Entry Name of Target Chain>
EGFR_HUMAN

> <UniProt (SwissProt) Primary ID of Target Chain>
P00533

> <UniProt (SwissProt) Secondary ID(s) of Target Chain>
O00688,O00732,P06268,Q14225,Q68GS5,Q92795,Q9BZS2,Q9GZX1,Q9H2C9,Q9H3C9,Q9UMD7,Q9UMD8,Q9UMG5

> <UniProt (SwissProt) Alternative ID(s) of Target Chain>


> <UniProt (TrEMBL) Submitted Name of Target Chain>


> <UniProt (TrEMBL) Entry Name of Target Chain>


> <UniProt (TrEMBL) Primary ID of Target Chain>


> <UniProt (TrEMBL) Secondary ID(s) of Target Chain>


> <UniProt (TrEMBL) Alternative ID(s) of Target Chain>


> <training label>
8.92082

> <i_lp_mmshare_version>
54117

> <s_epik_input>
W0NIM11OKFtDSDNdKVtDSDJdXFtDSF09W0NIXVxDKD1PKVtOSF1jKFtjSF0xKWMoT1tDQEBIXTJbQ0gyXU9bQ0gyXVtDSDJdMilbY0hdYyhjMTMpbltjSF1uYzNbTkhdYzRbY0hdYyhDI1tDSF0pW2NIXVtjSF1bY0hdNA==

> <s_epik_cmdline>
J2VwaWtfcHl0aG9uJywgJy1waHQnLCAnMC4xJywgJy1waCcsICc3LjQnLCAnLXRuJywgJzgnLCAnLW1hJywgJzIwMCcsICctaW1hZScsICc8aW5maWxlLm1hZT4nLCAnLW9tYWUnLCAnPG91dGZpbGUubWFlPic=

> <r_lp_tautomer_probability>
0.999978000241998

> <r_epik_Ionization_Penalty>
  0.3501

> <r_epik_Ionization_Penalty_Charging>
  0.3497

> <r_epik_Ionization_Penalty_Neutral>
  0.0005

> <r_epik_State_Penalty>
  0.3458

> <r_epik_Charging_Adjusted_Penalty>
0.695490871392805

> <i_epik_Tot_Q>
1

> <i_epik_Tot_abs_Q>
1

> <i_f3d_flags>
0

> <s_lp_Force_Field>
OPLS_2005

> <r_lp_Energy>
35.065157

> <b_lp_Chiralities_Consistent>
1

> <s_lp_Variant>
/home/bortolaa/Project/GT/mario-master/ligands/set505ligs_train.sdf:249-1

> <s_i_glide_gridfile>
struct_1_site_1

> <i_i_glide_lignum>
277

> <i_i_glide_rotatable_bonds>
10

> <r_i_docking_score>
-7.60689737907586

> <r_i_glide_ligand_efficiency>
-0.223732275855172

> <r_i_glide_ligand_efficiency_sa>
-0.72480572033511

> <r_i_glide_ligand_efficiency_ln>
-1.68057699728214

> <r_i_glide_gscore>
-7.95269737907586

> <r_i_glide_lipo>
-3.23012407284084

> <r_i_glide_hbond>
-0.32

> <r_i_glide_metal>
0

> <r_i_glide_rewards>
-1.57791658682708

> <r_i_glide_evdw>
-47.982666015625

> <r_i_glide_ecoul>
-8.17401027679443

> <r_i_glide_erotb>
0.860974927598064

> <r_i_glide_esite>
-0.0603968047055882

> <r_i_glide_emodel>
-66.2560181986921

> <r_i_glide_energy>
-56.1566762924194

> <r_i_glide_einternal>
7.84852886199951

> <i_i_glide_confnum>
28

> <i_i_glide_posenum>
45

> <r_i_glide_eff_state_penalty>
0.3458

> <IC50 (nM)>
1.2

> <PMID>
26310890

> <r_glide_shape_similarity>
0.800689935684204

> <s_m_subgroup_title>
505 training

> <s_m_subgroupid>
pocket_pv

> <b_m_subgroup_collapsed>
0

$$$$
/home/bortolaa/Project/GT/mario-master/ligands/set505ligs_train.sdf:261
                    3D
 Schrodinger Suite 2021-2.
 55 58  0  0  1  0            999 V2000
   21.8041   -1.9060   55.1429 N   0  0  0  0  0  0
   23.0998   -1.7439   55.4163 C   0  0  0  0  0  0
   23.9423   -0.8913   54.8352 N   0  0  0  0  0  0
   23.4388   -0.0954   53.8692 C   0  0  0  0  0  0
   22.0730   -0.1671   53.4990 C   0  0  0  0  0  0
   21.5144    0.6475   52.4858 C   0  0  0  0  0  0
   20.1511    0.5236   52.1351 C   0  0  0  0  0  0
   19.3329   -0.3955   52.8330 C   0  0  0  0  0  0
   19.9042   -1.2145   53.8416 C   0  0  0  0  0  0
   21.2688   -1.1171   54.1830 C   0  0  0  0  0  0
   24.2867    0.8529   53.2727 N   0  0  0  0  0  0
   18.0132   -0.4517   52.4415 O   0  0  0  0  0  0
   17.1103   -1.2756   53.1664 C   0  0  0  0  0  0
   15.7002   -0.9569   52.6516 C   0  0  0  0  0  0
   15.3704    0.3305   53.1478 O   0  0  0  0  0  0
   14.6811    1.1592   52.2284 C   0  0  0  0  0  0
   13.1808    0.8049   52.1722 C   0  0  0  0  0  0
   12.1503    2.0489   54.1710 C   0  0  0  0  0  0
   11.5427    1.7543   55.3326 N   0  0  0  0  0  0
   11.4889    0.3589   55.3744 C   0  0  0  0  0  0
   12.1064   -0.1567   54.2527 C   0  0  0  0  0  0
   12.5169    0.9311   53.4729 N   0  0  0  0  0  0
   12.3636    3.4444   53.7494 N   0  3  0  0  0  0
   12.1331    4.3317   54.5740 O   0  0  0  0  0  0
   12.7681    3.6724   52.6076 O   0  5  0  0  0  0
   19.5675    1.2645   51.1220 O   0  0  0  0  0  0
   20.3825    1.6590   50.0217 C   0  0  0  0  0  0
   25.6829    0.9496   53.3392 C   0  0  0  0  0  0
   26.5094   -0.1999   53.3302 C   0  0  0  0  0  0
   27.9104   -0.0721   53.3882 C   0  0  0  0  0  0
   28.4901    1.2108   53.4592 C   0  0  0  0  0  0
   27.6749    2.3630   53.4299 C   0  0  0  0  0  0
   26.2730    2.2334   53.3669 C   0  0  0  0  0  0
   29.8308    1.3266   53.5791 F   0  0  0  0  0  0
   28.9054   -1.4875   53.3744 Cl  0  0  0  0  0  0
   23.5183   -2.3867   56.1765 H   0  0  0  0  0  0
   22.1297    1.3612   51.9592 H   0  0  0  0  0  0
   19.3026   -1.9332   54.3777 H   0  0  0  0  0  0
   23.8180    1.6319   52.8351 H   0  0  0  0  0  0
   17.1665   -1.0909   54.2402 H   0  0  0  0  0  0
   17.3477   -2.3245   52.9893 H   0  0  0  0  0  0
   14.9721   -1.6754   53.0303 H   0  0  0  0  0  0
   15.6850   -1.0147   51.5616 H   0  0  0  0  0  0
   15.1345    1.1174   51.2366 H   0  0  0  0  0  0
   14.8064    2.1857   52.5661 H   0  0  0  0  0  0
   13.0580   -0.2181   51.8159 H   0  0  0  0  0  0
   12.6656    1.4372   51.4503 H   0  0  0  0  0  0
   11.0315   -0.1626   56.2016 H   0  0  0  0  0  0
   12.2673   -1.1812   53.9499 H   0  0  0  0  0  0
   19.7468    1.9781   49.1976 H   0  0  0  0  0  0
   21.0260    2.4947   50.2898 H   0  0  0  0  0  0
   20.9982    0.8342   49.6657 H   0  0  0  0  0  0
   26.0730   -1.1852   53.2735 H   0  0  0  0  0  0
   28.1229    3.3459   53.4731 H   0  0  0  0  0  0
   25.6638    3.1273   53.3580 H   0  0  0  0  0  0
  1  2  2  0  0  0
  1 10  1  0  0  0
  2  3  1  0  0  0
  2 36  1  0  0  0
  3  4  2  0  0  0
  4  5  1  0  0  0
  4 11  1  0  0  0
  5  6  2  0  0  0
  5 10  1  0  0  0
  6  7  1  0  0  0
  6 37  1  0  0  0
  7  8  2  0  0  0
  7 26  1  0  0  0
  8  9  1  0  0  0
  8 12  1  0  0  0
  9 10  2  0  0  0
  9 38  1  0  0  0
 11 28  1  0  0  0
 11 39  1  0  0  0
 12 13  1  0  0  0
 13 14  1  0  0  0
 13 40  1  0  0  0
 13 41  1  0  0  0
 14 15  1  0  0  0
 14 42  1  0  0  0
 14 43  1  0  0  0
 15 16  1  0  0  0
 16 17  1  0  0  0
 16 44  1  0  0  0
 16 45  1  0  0  0
 17 22  1  0  0  0
 17 46  1  0  0  0
 17 47  1  0  0  0
 18 19  2  0  0  0
 18 22  1  0  0  0
 18 23  1  0  0  0
 19 20  1  0  0  0
 20 21  2  0  0  0
 20 48  1  0  0  0
 21 22  1  0  0  0
 21 49  1  0  0  0
 23 24  2  0  0  0
 23 25  1  0  0  0
 26 27  1  0  0  0
 27 50  1  0  0  0
 27 51  1  0  0  0
 27 52  1  0  0  0
 28 29  2  0  0  0
 28 33  1  0  0  0
 29 30  1  0  0  0
 29 53  1  0  0  0
 30 31  2  0  0  0
 30 35  1  0  0  0
 31 32  1  0  0  0
 31 34  1  0  0  0
 32 33  2  0  0  0
 32 54  1  0  0  0
 33 55  1  0  0  0
M  CHG  2  23   1  25  -1
M  END
> <s_m_entry_id>
300

> <s_m_entry_name>
pocket_pv.111

> <s_m_Source_Path>
/home/bortolaa/Project/GT/mario-master/docking/set505protein_struct_1_site_1_set505ligs_train

> <s_m_Source_File>
pocket_pv.maegz

> <i_m_Source_File_Index>
111

> <From>
www.bindingDB.org

> <BindingDB Reactant_set_id>
50258912

> <Ligand InChI>
InChI=1S/C22H20ClFN6O5/c1-33-19-11-15-18(26-13-27-21(15)28-14-2-3-17(24)16(23)10-14)12-20(19)35-9-8-34-7-6-29-5-4-25-22(29)30(31)32/h2-5,10-13H,6-9H2,1H3,(H,26,27,28)

> <Ligand InChI Key>
FWVMKOBBMROUNK-UHFFFAOYSA-N

> <BindingDB MonomerID>
50040435

> <BindingDB Ligand Name>
CHEMBL3360606

> <Target Name Assigned by Curator or DataSource>
Epidermal growth factor receptor

> <Target Source Organism According to Curator or DataSource>
Homo sapiens

> <Ki (nM)>


> <Kd (nM)>


> <EC50 (nM)>


> <kon (M-1-s-1)>


> <koff (s-1)>


> <pH>


> <Temp C>


> <Curation/DataSource>
ChEMBL

> <Article DOI>
10.1016/j.bmc.2014.10.038

> <PubChem AID>


> <Patent Number>


> <Authors>
Cheng, W; Yuan, Y; Qiu, N; Peng, P; Sheng, R; Hu, Y

> <Institution>
TBA

> <Link to Ligand in BindingDB>
http://www.bindingdb.org/bind/chemsearch/marvin/MolStructure.jsp?monomerid=50040435

> <Link to Ligand-Target Pair in BindingDB>
http://www.bindingdb.org/jsp/dbsearch/PrimarySearch_ki.jsp?energyterm=kJ/mole&tag=r21&monomerid=50040435&enzyme=Epidermal+growth+factor+receptor&column=ki&startPg=0&Increment=50&submit=Search

> <Ligand HET ID in PDB>


> <PDB ID(s) for Ligand-Target Complex>


> <PubChem CID>
118724344

> <PubChem SID>
313067458

> <ChEBI ID of Ligand>


> <ChEMBL ID of Ligand>
CHEMBL3360606

> <DrugBank ID of Ligand>


> <IUPHAR_GRAC ID of Ligand>


> <KEGG ID of Ligand>


> <ZINC ID of Ligand>


> <Number of Protein Chains in Target (>
1

> <BindingDB Target Chain Sequence>
MRPSGTAGAALLALLAALCPASRALEEKKVCQGTSNKLTQLGTFEDHFLSLQRMFNNCEVVLGNLEITYVQRNYDLSFLKTIQEVAGYVLIALNTVERIPLENLQIIRGNMYYENSYALAVLSNYDANKTGLKELPMRNLQEILHGAVRFSNNPALCNVESIQWRDIVSSDFLSNMSMDFQNHLGSCQKCDPSCPNGSCWGAGEENCQKLTKIICAQQCSGRCRGKSPSDCCHNQCAAGCTGPRESDCLVCRKFRDEATCKDTCPPLMLYNPTTYQMDVNPEGKYSFGATCVKKCPRNYVVTDHGSCVRACGADSYEMEEDGVRKCKKCEGPCRKVCNGIGIGEFKDSLSINATNIKHFKNCTSISGDLHILPVAFRGDSFTHTPPLDPQELDILKTVKEITGFLLIQAWPENRTDLHAFENLEIIRGRTKQHGQFSLAVVSLNITSLGLRSLKEISDGDVIISGNKNLCYANTINWKKLFGTSGQKTKIISNRGENSCKATGQVCHALCSPEGCWGPEPRDCVSCRNVSRGRECVDKCNLLEGEPREFVENSECIQCHPECLPQAMNITCTGRGPDNCIQCAHYIDGPHCVKTCPAGVMGENNTLVWKYADAGHVCHLCHPNCTYGCTGPGLEGCPTNGPKIPSIATGMVGALLLLLVVALGIGLFMRRRHIVRKRTLRRLLQERELVEPLTPSGEAPNQALLRILKETEFKKIKVLGSGAFGTVYKGLWIPEGEKVKIPVAIKELREATSPKANKEILDEAYVMASVDNPHVCRLLGICLTSTVQLITQLMPFGCLLDYVREHKDNIGSQYLLNWCVQIAKGMNYLEDRRLVHRDLAARNVLVKTPQHVKITDFGLAKLLGAEEKEYHAEGGKVPIKWMALESILHRIYTHQSDVWSYGVTVWELMTFGSKPYDGIPASEISSILEKGERLPQPPICTIDVYMIMVKCWMIDADSRPKFRELIIEFSKMARDPQRYLVIQGDERMHLPSPTDSNFYRALMDEEDMDDVVDADEYLIPQQGFFSSPSTSRTPLLSSLSATSNNSTVACIDRNGLQSCPIKEDSFLQRYSSDPTGALTEDSIDDTFLPVPEYINQSVPKRPAGSVQNPVYHNQPLNPAPSRDPHYQDPHSTAVGNPEYLNTVQPTCVNSTFDSPAHWAQKGSHQISLDNPDYQQDFFPKEAKPNGIFKGSTAENAEYLRVAPQSSEFIGA

> <PDB ID(s) of Target Chain>
1IVO,1M14,1M17,1MOX,1XKK,1Z9I,2GS2,2GS6,2ITW,2ITX,2ITY,2J5E,2J5F,2J6M,2RF9,2RGP,3B2V,3BEL,3GOP,3POZ,3QWQ,3VJO,3W2O,3W2P,3W2Q,3W2R,3W2S,3W32,3W33,4G5J,4I23,4JQ7,4JQ8,4JR3,4JRV,4KRO,4LI5,4RJ4,4RJ5,4RJ6,4RJ7,4RJ8,4TKS,4UIP,4UV7,4WKQ,4WRG,4ZAU,5C8K,5C8M,5C8N,5CAL,5CAN,5CAO,5CAP,5CAQ,5CAS,5CAU,5CAV,5EDP,5EDQ,5EDR,5EM5,5EM6,5EM7,5EM8,5FED,5GNK,5HCX,5HCY,5HCZ,5HIB,5HIC,5UGB,5WB7,5WB8,5Y25,6S89,6S8A

> <UniProt (SwissProt) Recommended Name of Target Chain>
Epidermal growth factor receptor

> <UniProt (SwissProt) Entry Name of Target Chain>
EGFR_HUMAN

> <UniProt (SwissProt) Primary ID of Target Chain>
P00533

> <UniProt (SwissProt) Secondary ID(s) of Target Chain>
O00688,O00732,P06268,Q14225,Q68GS5,Q92795,Q9BZS2,Q9GZX1,Q9H2C9,Q9H3C9,Q9UMD7,Q9UMD8,Q9UMG5

> <UniProt (SwissProt) Alternative ID(s) of Target Chain>


> <UniProt (TrEMBL) Submitted Name of Target Chain>


> <UniProt (TrEMBL) Entry Name of Target Chain>


> <UniProt (TrEMBL) Primary ID of Target Chain>


> <UniProt (TrEMBL) Secondary ID(s) of Target Chain>


> <UniProt (TrEMBL) Alternative ID(s) of Target Chain>


> <training label>
9.49485

> <i_lp_mmshare_version>
54117

> <s_epik_input>
W2NIXTFbY0hdYyhGKWMoQ2wpW2NIXWMxW05IXWMybltjSF1uYyhjMjMpW2NIXWMoYyhbY0hdMylPW0NIM10pT1tDSDJdW0NIMl1PW0NIMl1bQ0gyXW40W2NIXVtjSF1uYzRbTitdKD1PKVtPLV0=

> <s_epik_cmdline>
J2VwaWtfcHl0aG9uJywgJy1waHQnLCAnMC4xJywgJy1waCcsICc3LjQnLCAnLXRuJywgJzgnLCAnLW1hJywgJzIwMCcsICctaW1hZScsICc8aW5maWxlLm1hZT4nLCAnLW9tYWUnLCAnPG91dGZpbGUubWFlPic=

> <r_lp_tautomer_probability>
1

> <r_epik_Ionization_Penalty>
  0.0008

> <r_epik_Ionization_Penalty_Charging>
  0.0000

> <r_epik_Ionization_Penalty_Neutral>
  0.0008

> <r_epik_State_Penalty>
  0.0000

> <r_epik_Charging_Adjusted_Penalty>
7.19277079087177e-09

> <i_epik_Tot_Q>
0

> <i_epik_Tot_abs_Q>
2

> <i_f3d_flags>
0

> <s_lp_Force_Field>
OPLS_2005

> <r_lp_Energy>
26.275918

> <b_lp_Chiralities_Consistent>
1

> <s_lp_Variant>
/home/bortolaa/Project/GT/mario-master/ligands/set505ligs_train.sdf:261-1

> <s_i_glide_gridfile>
struct_1_site_1

> <i_i_glide_lignum>
289

> <i_i_glide_rotatable_bonds>
11

> <r_i_docking_score>
-7.60109901055668

> <r_i_glide_ligand_efficiency>
-0.217174257444477

> <r_i_glide_ligand_efficiency_sa>
-0.710391396124954

> <r_i_glide_ligand_efficiency_ln>
-1.66860993012056

> <r_i_glide_gscore>
-7.60109901055668

> <r_i_glide_lipo>
-3.12923055785918

> <r_i_glide_hbond>
-0.32

> <r_i_glide_metal>
0

> <r_i_glide_rewards>
-1.31704852567758

> <r_i_glide_evdw>
-54.6155471801758

> <r_i_glide_ecoul>
-4.89732456207275

> <r_i_glide_erotb>
0.727292968239827

> <r_i_glide_esite>
-0.0967368519400461

> <r_i_glide_emodel>
-59.4874423434579

> <r_i_glide_energy>
-59.5128717422485

> <r_i_glide_einternal>
7.55605888366699

> <i_i_glide_confnum>
205

> <i_i_glide_posenum>
152

> <r_i_glide_eff_state_penalty>
0

> <IC50 (nM)>
0.32

> <PMID>
25468044

> <r_glide_shape_similarity>
0.74791544675827

> <s_m_subgroup_title>
505 training

> <s_m_subgroupid>
pocket_pv

> <b_m_subgroup_collapsed>
0

$$$$
BindingDB_3533_mol_1
                    3D
 Schrodinger Suite 2021-2.
 36 38  0  0  1  0            999 V2000
   21.5150    0.6419   52.4945 C   0  0  0  0  0  0
   19.3428   -0.3880   52.8381 C   0  0  0  0  0  0
   19.9122   -1.2053   53.8404 C   0  0  0  0  0  0
   22.0735   -0.1684   53.5006 C   0  0  0  0  0  0
   21.2736   -1.1102   54.1788 C   0  0  0  0  0  0
   23.4355   -0.0948   53.8654 C   0  0  0  0  0  0
   23.0957   -1.7277   55.4097 C   0  0  0  0  0  0
   23.9345   -0.8837   54.8271 N   0  0  0  0  0  0
   21.8053   -1.8949   55.1358 N   0  0  0  0  0  0
   24.2890    0.8479   53.2759 N   0  0  0  0  0  0
   23.8208    1.6200   52.8342 H   0  0  0  0  0  0
   25.6840    0.9497   53.3432 C   0  0  0  0  0  0
   27.6714    2.3601   53.4243 C   0  0  0  0  0  0
   26.2746    2.2258   53.3684 C   0  0  0  0  0  0
   26.5152   -0.1863   53.3303 C   0  0  0  0  0  0
   28.4929    1.2242   53.4384 C   0  0  0  0  0  0
   20.1580    0.5193   52.1411 C   0  0  0  0  0  0
   19.5714    1.2443   51.1312 O   0  0  0  0  0  0
   20.3944    1.6918   50.0658 C   0  0  0  0  0  0
   18.0222   -0.4198   52.4572 O   0  0  0  0  0  0
   17.1146   -1.1650   53.2340 C   0  0  0  0  0  0
   27.9101   -0.0494   53.3817 C   0  0  0  0  0  0
   29.1122   -1.7509   53.3728 I   0  0  0  0  0  0
   22.1333    1.3484   51.9692 H   0  0  0  0  0  0
   19.3105   -1.9160   54.3823 H   0  0  0  0  0  0
   23.5101   -2.3674   56.1748 H   0  0  0  0  0  0
   28.1097    3.3486   53.4620 H   0  0  0  0  0  0
   25.6681    3.1215   53.3671 H   0  0  0  0  0  0
   26.0874   -1.1770   53.2793 H   0  0  0  0  0  0
   29.5691    1.3283   53.4847 H   0  0  0  0  0  0
   19.7679    2.0263   49.2408 H   0  0  0  0  0  0
   21.0411    0.8957   49.6889 H   0  0  0  0  0  0
   21.0003    2.5427   50.3796 H   0  0  0  0  0  0
   16.1011   -1.0024   52.8694 H   0  0  0  0  0  0
   17.3232   -2.2336   53.1632 H   0  0  0  0  0  0
   17.1424   -0.8647   54.2826 H   0  0  0  0  0  0
  1  4  2  0  0  0
  1 17  1  0  0  0
  1 24  1  0  0  0
  2  3  1  0  0  0
  2 17  2  0  0  0
  2 20  1  0  0  0
  3  5  2  0  0  0
  3 25  1  0  0  0
  4  5  1  0  0  0
  4  6  1  0  0  0
  5  9  1  0  0  0
  6  8  2  0  0  0
  6 10  1  0  0  0
  7  8  1  0  0  0
  7  9  2  0  0  0
  7 26  1  0  0  0
 10 11  1  0  0  0
 10 12  1  0  0  0
 12 14  2  0  0  0
 12 15  1  0  0  0
 13 14  1  0  0  0
 13 16  2  0  0  0
 13 27  1  0  0  0
 14 28  1  0  0  0
 15 22  2  0  0  0
 15 29  1  0  0  0
 16 22  1  0  0  0
 16 30  1  0  0  0
 17 18  1  0  0  0
 18 19  1  0  0  0
 19 31  1  0  0  0
 19 32  1  0  0  0
 19 33  1  0  0  0
 20 21  1  0  0  0
 21 34  1  0  0  0
 21 35  1  0  0  0
 21 36  1  0  0  0
 22 23  1  0  0  0
M  END
> <s_m_entry_id>
301

> <s_m_entry_name>
pocket_pv.112

> <s_m_Source_Path>
/home/bortolaa/Project/GT/mario-master/docking/set505protein_struct_1_site_1_set505ligs_train

> <s_m_Source_File>
pocket_pv.maegz

> <i_m_Source_File_Index>
112

> <From>
www.bindingDB.org

> <BindingDB Reactant_set_id>
6580

> <Ligand InChI>
InChI=1S/C16H14IN3O2/c1-21-14-7-12-13(8-15(14)22-2)18-9-19-16(12)20-11-5-3-4-10(17)6-11/h3-9H,1-2H3,(H,18,19,20)

> <Ligand InChI Key>
FGCLAQLIXMAIHT-UHFFFAOYSA-N

> <BindingDB MonomerID>
3533

> <BindingDB Ligand Name>
CHEMBL1204305::CHEMBL96065::N-(3-iodophenyl)-6,7-dimethoxyquinazolin-4-amine::PD153035 Analog 33

> <Target Name Assigned by Curator or DataSource>
Epidermal growth factor receptor

> <Target Source Organism According to Curator or DataSource>
Homo sapiens

> <Ki (nM)>


> <IC50 (nM)>
950

> <Kd (nM)>


> <EC50 (nM)>


> <kon (M-1-s-1)>


> <koff (s-1)>


> <Curation/DataSource>
Curated from the literature by BindingDB

> <Article DOI>
10.1021/jm050101d

> <PubChem AID>


> <Patent Number>


> <Authors>
Gazit, A; Chen, J; App, H; McMahon, G; Hirth, P; Chen, I; Levitzki, A

> <Institution>
Hebrew University of Jerusalem

> <Link to Ligand in BindingDB>
http://www.bindingdb.org/bind/chemsearch/marvin/MolStructure.jsp?monomerid=3533

> <Link to Ligand-Target Pair in BindingDB>
http://www.bindingdb.org/jsp/dbsearch/PrimarySearch_ki.jsp?energyterm=kJ/mole&tag=r21&monomerid=3533&enzyme=Epidermal+growth+factor+receptor&column=ki&startPg=0&Increment=50&submit=Search

> <Ligand HET ID in PDB>


> <PDB ID(s) for Ligand-Target Complex>


> <PubChem CID>
5328201

> <PubChem SID>
8033258

> <ChEBI ID of Ligand>


> <ChEMBL ID of Ligand>
CHEMBL96065
CHEMBL1204305

> <DrugBank ID of Ligand>


> <IUPHAR_GRAC ID of Ligand>


> <KEGG ID of Ligand>


> <ZINC ID of Ligand>
ZINC03815075

> <Number of Protein Chains in Target (>
1

> <BindingDB Target Chain Sequence>
MRPSGTAGAALLALLAALCPASRALEEKKVCQGTSNKLTQLGTFEDHFLSLQRMFNNCEVVLGNLEITYVQRNYDLSFLKTIQEVAGYVLIALNTVERIPLENLQIIRGNMYYENSYALAVLSNYDANKTGLKELPMRNLQEILHGAVRFSNNPALCNVESIQWRDIVSSDFLSNMSMDFQNHLGSCQKCDPSCPNGSCWGAGEENCQKLTKIICAQQCSGRCRGKSPSDCCHNQCAAGCTGPRESDCLVCRKFRDEATCKDTCPPLMLYNPTTYQMDVNPEGKYSFGATCVKKCPRNYVVTDHGSCVRACGADSYEMEEDGVRKCKKCEGPCRKVCNGIGIGEFKDSLSINATNIKHFKNCTSISGDLHILPVAFRGDSFTHTPPLDPQELDILKTVKEITGFLLIQAWPENRTDLHAFENLEIIRGRTKQHGQFSLAVVSLNITSLGLRSLKEISDGDVIISGNKNLCYANTINWKKLFGTSGQKTKIISNRGENSCKATGQVCHALCSPEGCWGPEPRDCVSCRNVSRGRECVDKCNLLEGEPREFVENSECIQCHPECLPQAMNITCTGRGPDNCIQCAHYIDGPHCVKTCPAGVMGENNTLVWKYADAGHVCHLCHPNCTYGCTGPGLEGCPTNGPKIPSIATGMVGALLLLLVVALGIGLFMRRRHIVRKRTLRRLLQERELVEPLTPSGEAPNQALLRILKETEFKKIKVLGSGAFGTVYKGLWIPEGEKVKIPVAIKELREATSPKANKEILDEAYVMASVDNPHVCRLLGICLTSTVQLITQLMPFGCLLDYVREHKDNIGSQYLLNWCVQIAKGMNYLEDRRLVHRDLAARNVLVKTPQHVKITDFGLAKLLGAEEKEYHAEGGKVPIKWMALESILHRIYTHQSDVWSYGVTVWELMTFGSKPYDGIPASEISSILEKGERLPQPPICTIDVYMIMVKCWMIDADSRPKFRELIIEFSKMARDPQRYLVIQGDERMHLPSPTDSNFYRALMDEEDMDDVVDADEYLIPQQGFFSSPSTSRTPLLSSLSATSNNSTVACIDRNGLQSCPIKEDSFLQRYSSDPTGALTEDSIDDTFLPVPEYINQSVPKRPAGSVQNPVYHNQPLNPAPSRDPHYQDPHSTAVGNPEYLNTVQPTCVNSTFDSPAHWAQKGSHQISLDNPDYQQDFFPKEAKPNGIFKGSTAENAEYLRVAPQSSEFIGA

> <PDB ID(s) of Target Chain>
1IVO,1M14,1M17,1MOX,1XKK,1Z9I,2GS2,2GS6,2ITW,2ITX,2ITY,2J5E,2J5F,2J6M,2RF9,2RGP,3B2V,3BEL,3GOP,3POZ,3QWQ,3VJO,3W2O,3W2P,3W2Q,3W2R,3W2S,3W32,3W33,4G5J,4I23,4JQ7,4JQ8,4JR3,4JRV,4KRO,4LI5,4RJ4,4RJ5,4RJ6,4RJ7,4RJ8,4TKS,4UIP,4UV7,4WKQ,4WRG,4ZAU,5C8K,5C8M,5C8N,5CAL,5CAN,5CAO,5CAP,5CAQ,5CAS,5CAU,5CAV,5EDP,5EDQ,5EDR,5EM5,5EM6,5EM7,5EM8,5FED,5GNK,5HCX,5HCY,5HCZ,5HIB,5HIC,5UGB,5WB7,5WB8,5Y25,6S89,6S8A

> <UniProt (SwissProt) Recommended Name of Target Chain>
Epidermal growth factor receptor

> <UniProt (SwissProt) Entry Name of Target Chain>
EGFR_HUMAN

> <UniProt (SwissProt) Primary ID of Target Chain>
P00533

> <UniProt (SwissProt) Secondary ID(s) of Target Chain>
O00688,O00732,P06268,Q14225,Q68GS5,Q92795,Q9BZS2,Q9GZX1,Q9H2C9,Q9H3C9,Q9UMD7,Q9UMD8,Q9UMG5

> <UniProt (SwissProt) Alternative ID(s) of Target Chain>


> <UniProt (TrEMBL) Submitted Name of Target Chain>


> <UniProt (TrEMBL) Entry Name of Target Chain>


> <UniProt (TrEMBL) Primary ID of Target Chain>


> <UniProt (TrEMBL) Secondary ID(s) of Target Chain>


> <UniProt (TrEMBL) Alternative ID(s) of Target Chain>


> <training label>
6.02228

> <i_lp_mmshare_version>
54117

> <s_epik_input>
W0NIM11PYyhbY0hdMSljKE9bQ0gzXSlbY0hdYyhjMTIpbltjSF1uYzJbTkhdYzNbY0hdW2NIXVtjSF1jKEkpW2NIXTM=

> <s_epik_cmdline>
J2VwaWtfcHl0aG9uJywgJy1waHQnLCAnMC4xJywgJy1waCcsICc3LjQnLCAnLXRuJywgJzgnLCAnLW1hJywgJzIwMCcsICctaW1hZScsICc8aW5maWxlLm1hZT4nLCAnLW9tYWUnLCAnPG91dGZpbGUubWFlPic=

> <r_lp_tautomer_probability>
1

> <r_epik_Ionization_Penalty>
  0.0006

> <r_epik_Ionization_Penalty_Charging>
  0.0000

> <r_epik_Ionization_Penalty_Neutral>
  0.0006

> <r_epik_State_Penalty>
  0.0000

> <r_epik_Charging_Adjusted_Penalty>
0

> <i_epik_Tot_Q>
0

> <i_epik_Tot_abs_Q>
0

> <i_f3d_flags>
0

> <s_lp_Force_Field>
OPLS_2005

> <r_lp_Energy>
19.939253

> <b_lp_Chiralities_Consistent>
1

> <s_lp_Variant>
BindingDB_3533_mol_1-1

> <s_i_glide_gridfile>
struct_1_site_1

> <i_i_glide_lignum>
69

> <i_i_glide_rotatable_bonds>
4

> <r_i_docking_score>
-7.60088699421076

> <r_i_glide_ligand_efficiency>
-0.345494863373216

> <r_i_glide_ligand_efficiency_sa>
-0.968090194713693

> <r_i_glide_ligand_efficiency_ln>
-1.85793403047461

> <r_i_glide_gscore>
-7.60088699421076

> <r_i_glide_lipo>
-2.9132472513438

> <r_i_glide_hbond>
-0.32

> <r_i_glide_metal>
0

> <r_i_glide_rewards>
-1.79851132436747

> <r_i_glide_evdw>
-40.0493927001953

> <r_i_glide_ecoul>
-5.35936212539673

> <r_i_glide_erotb>
0.23724553531979

> <r_i_glide_esite>
0

> <r_i_glide_emodel>
-47.0848536141779

> <r_i_glide_energy>
-45.408754825592

> <r_i_glide_einternal>
1.45065236091614

> <i_i_glide_confnum>
3

> <i_i_glide_posenum>
56

> <r_i_glide_eff_state_penalty>
0

> <PMID>
8879541

> <Temp C>
22

> <r_glide_shape_similarity>
0.802199900150299

> <pH>
7.6

> <s_m_subgroup_title>
505 training

> <s_m_subgroupid>
pocket_pv

> <b_m_subgroup_collapsed>
0

$$$$
BindingDB_50380472_mol_1
                    3D
 Schrodinger Suite 2021-2.
 57 59  0  0  1  0            999 V2000
   20.1723    0.5379   52.1098 C   0  0  0  0  0  0
   19.3507   -0.3929   52.7884 C   0  0  0  0  0  0
   19.8826   -1.2033   53.8268 C   0  0  0  0  0  0
   21.5285    0.6578   52.4841 C   0  0  0  0  0  0
   19.5963    1.2680   51.0814 O   0  0  0  0  0  0
   20.4218    1.6852   49.9911 C   0  0  0  0  0  0
   18.0813   -0.4765   52.2747 O   0  0  0  0  0  0
   16.9961   -0.9070   53.0672 C   0  0  0  0  0  0
   22.0739   -0.1650   53.5034 C   0  0  0  0  0  0
   21.2559   -1.1081   54.1849 C   0  0  0  0  0  0
   21.7972   -1.9031   55.1416 N   0  0  0  0  0  0
   23.0958   -1.7503   55.4185 C   0  0  0  0  0  0
   23.9442   -0.9065   54.8342 N   0  0  0  0  0  0
   23.4410   -0.0986   53.8713 C   0  0  0  0  0  0
   24.2834    0.8564   53.2733 N   0  0  0  0  0  0
   25.6790    0.9429   53.3352 C   0  0  0  0  0  0
   26.4882   -0.2193   53.3091 C   0  0  0  0  0  0
   27.8870   -0.1223   53.3935 C   0  0  0  0  0  0
   28.4800    1.1530   53.5304 C   0  0  0  0  0  0
   27.6854    2.3282   53.4643 C   0  0  0  0  0  0
   26.2832    2.2213   53.3672 C   0  0  0  0  0  0
   15.7716   -0.4935   52.2187 C   0  0  0  0  0  0
   14.5227   -0.3162   53.0231 N   0  3  0  0  0  0
   14.2252    1.1310   53.2492 C   0  0  0  0  0  0
   12.9503    1.4078   54.0724 C   0  0  0  0  0  0
   13.3732   -1.1236   52.4997 C   0  0  0  0  0  0
   12.8342   -0.6583   51.1211 C   0  0  0  0  0  0
   28.9407   -1.7221   53.3750 Br  0  0  0  0  0  0
   29.9650    1.2217   53.8078 C   0  0  0  0  0  0
   19.2664   -1.9301   54.3353 H   0  0  0  0  0  0
   22.1479    1.3756   51.9691 H   0  0  0  0  0  0
   19.7920    2.0005   49.1614 H   0  0  0  0  0  0
   21.0472    2.5319   50.2809 H   0  0  0  0  0  0
   21.0615    0.8727   49.6327 H   0  0  0  0  0  0
   17.0086   -0.4463   54.0528 H   0  0  0  0  0  0
   17.0235   -1.9906   53.2143 H   0  0  0  0  0  0
   23.5077   -2.4033   56.1745 H   0  0  0  0  0  0
   23.8160    1.6326   52.8271 H   0  0  0  0  0  0
   26.0336   -1.1981   53.2254 H   0  0  0  0  0  0
   28.1469    3.3036   53.5520 H   0  0  0  0  0  0
   25.6842    3.1244   53.3607 H   0  0  0  0  0  0
   15.6328   -1.2510   51.4452 H   0  0  0  0  0  0
   15.9858    0.4268   51.6673 H   0  0  0  0  0  0
   14.1609    1.6666   52.2990 H   0  0  0  0  0  0
   15.0848    1.5462   53.7744 H   0  0  0  0  0  0
   12.8990    2.4561   54.3642 H   0  0  0  0  0  0
   12.9219    0.8074   54.9748 H   0  0  0  0  0  0
   12.0465    1.1988   53.5034 H   0  0  0  0  0  0
   13.6880   -2.1648   52.4326 H   0  0  0  0  0  0
   12.5616   -1.1207   53.2304 H   0  0  0  0  0  0
   12.0099   -1.2974   50.8025 H   0  0  0  0  0  0
   12.4550    0.3655   51.1552 H   0  0  0  0  0  0
   13.6020   -0.7058   50.3465 H   0  0  0  0  0  0
   30.5164    0.9359   52.9188 H   0  0  0  0  0  0
   30.2888    2.1961   54.1689 H   0  0  0  0  0  0
   30.2237    0.5016   54.5779 H   0  0  0  0  0  0
   14.7123   -0.7057   53.9463 H   0  0  0  0  0  0
  1  2  2  0  0  0
  1  4  1  0  0  0
  1  5  1  0  0  0
  2  3  1  0  0  0
  2  7  1  0  0  0
  3 10  2  0  0  0
  3 30  1  0  0  0
  4  9  2  0  0  0
  4 31  1  0  0  0
  5  6  1  0  0  0
  6 32  1  0  0  0
  6 33  1  0  0  0
  6 34  1  0  0  0
  7  8  1  0  0  0
  8 22  1  0  0  0
  8 35  1  0  0  0
  8 36  1  0  0  0
  9 10  1  0  0  0
  9 14  1  0  0  0
 10 11  1  0  0  0
 11 12  2  0  0  0
 12 13  1  0  0  0
 12 37  1  0  0  0
 13 14  2  0  0  0
 14 15  1  0  0  0
 15 16  1  0  0  0
 15 38  1  0  0  0
 16 17  2  0  0  0
 16 21  1  0  0  0
 17 18  1  0  0  0
 17 39  1  0  0  0
 18 19  2  0  0  0
 18 28  1  0  0  0
 19 20  1  0  0  0
 19 29  1  0  0  0
 20 21  2  0  0  0
 20 40  1  0  0  0
 21 41  1  0  0  0
 22 23  1  0  0  0
 22 42  1  0  0  0
 22 43  1  0  0  0
 23 24  1  0  0  0
 23 26  1  0  0  0
 23 57  1  0  0  0
 24 25  1  0  0  0
 24 44  1  0  0  0
 24 45  1  0  0  0
 25 46  1  0  0  0
 25 47  1  0  0  0
 25 48  1  0  0  0
 26 27  1  0  0  0
 26 49  1  0  0  0
 26 50  1  0  0  0
 27 51  1  0  0  0
 27 52  1  0  0  0
 27 53  1  0  0  0
 29 54  1  0  0  0
 29 55  1  0  0  0
 29 56  1  0  0  0
M  CHG  1  23   1
M  END
> <s_m_entry_id>
302

> <s_m_entry_name>
pocket_pv.113

> <s_m_Source_Path>
/home/bortolaa/Project/GT/mario-master/docking/set505protein_struct_1_site_1_set505ligs_train

> <s_m_Source_File>
pocket_pv.maegz

> <i_m_Source_File_Index>
113

> <From>
www.bindingDB.org

> <BindingDB Reactant_set_id>
50927758

> <Ligand InChI>
InChI=1S/C22H27BrN4O2/c1-5-27(6-2)9-10-29-21-13-19-17(12-20(21)28-4)22(25-14-24-19)26-16-8-7-15(3)18(23)11-16/h7-8,11-14H,5-6,9-10H2,1-4H3,(H,24,25,26)

> <Ligand InChI Key>
NSNASZRQVNTUNU-UHFFFAOYSA-N

> <BindingDB MonomerID>
50380472

> <BindingDB Ligand Name>
CHEMBL2018767

> <Target Name Assigned by Curator or DataSource>
Epidermal growth factor receptor

> <Target Source Organism According to Curator or DataSource>
Homo sapiens

> <Ki (nM)>


> <IC50 (nM)>
9450

> <Kd (nM)>


> <EC50 (nM)>


> <kon (M-1-s-1)>


> <koff (s-1)>


> <pH>


> <Temp C>


> <Curation/DataSource>
ChEMBL

> <Article DOI>
10.1021/jm2013453

> <PubChem AID>


> <Patent Number>


> <Authors>
Garofalo, A; Farce, A; Ravez, S; Lemoine, A; Six, P; Chavatte, P; Goossens, L; Depreux, P

> <Institution>
Univ. Lille Nord de France

> <Link to Ligand in BindingDB>
http://www.bindingdb.org/bind/chemsearch/marvin/MolStructure.jsp?monomerid=50380472

> <Link to Ligand-Target Pair in BindingDB>
http://www.bindingdb.org/jsp/dbsearch/PrimarySearch_ki.jsp?energyterm=kJ/mole&tag=r21&monomerid=50380472&enzyme=Epidermal+growth+factor+receptor&column=ki&startPg=0&Increment=50&submit=Search

> <Ligand HET ID in PDB>


> <PDB ID(s) for Ligand-Target Complex>


> <PubChem CID>
56954323

> <PubChem SID>
160859555

> <ChEBI ID of Ligand>


> <ChEMBL ID of Ligand>
CHEMBL2018767

> <DrugBank ID of Ligand>


> <IUPHAR_GRAC ID of Ligand>


> <KEGG ID of Ligand>


> <ZINC ID of Ligand>
ZINC84617257

> <Number of Protein Chains in Target (>
1

> <BindingDB Target Chain Sequence>
MRPSGTAGAALLALLAALCPASRALEEKKVCQGTSNKLTQLGTFEDHFLSLQRMFNNCEVVLGNLEITYVQRNYDLSFLKTIQEVAGYVLIALNTVERIPLENLQIIRGNMYYENSYALAVLSNYDANKTGLKELPMRNLQEILHGAVRFSNNPALCNVESIQWRDIVSSDFLSNMSMDFQNHLGSCQKCDPSCPNGSCWGAGEENCQKLTKIICAQQCSGRCRGKSPSDCCHNQCAAGCTGPRESDCLVCRKFRDEATCKDTCPPLMLYNPTTYQMDVNPEGKYSFGATCVKKCPRNYVVTDHGSCVRACGADSYEMEEDGVRKCKKCEGPCRKVCNGIGIGEFKDSLSINATNIKHFKNCTSISGDLHILPVAFRGDSFTHTPPLDPQELDILKTVKEITGFLLIQAWPENRTDLHAFENLEIIRGRTKQHGQFSLAVVSLNITSLGLRSLKEISDGDVIISGNKNLCYANTINWKKLFGTSGQKTKIISNRGENSCKATGQVCHALCSPEGCWGPEPRDCVSCRNVSRGRECVDKCNLLEGEPREFVENSECIQCHPECLPQAMNITCTGRGPDNCIQCAHYIDGPHCVKTCPAGVMGENNTLVWKYADAGHVCHLCHPNCTYGCTGPGLEGCPTNGPKIPSIATGMVGALLLLLVVALGIGLFMRRRHIVRKRTLRRLLQERELVEPLTPSGEAPNQALLRILKETEFKKIKVLGSGAFGTVYKGLWIPEGEKVKIPVAIKELREATSPKANKEILDEAYVMASVDNPHVCRLLGICLTSTVQLITQLMPFGCLLDYVREHKDNIGSQYLLNWCVQIAKGMNYLEDRRLVHRDLAARNVLVKTPQHVKITDFGLAKLLGAEEKEYHAEGGKVPIKWMALESILHRIYTHQSDVWSYGVTVWELMTFGSKPYDGIPASEISSILEKGERLPQPPICTIDVYMIMVKCWMIDADSRPKFRELIIEFSKMARDPQRYLVIQGDERMHLPSPTDSNFYRALMDEEDMDDVVDADEYLIPQQGFFSSPSTSRTPLLSSLSATSNNSTVACIDRNGLQSCPIKEDSFLQRYSSDPTGALTEDSIDDTFLPVPEYINQSVPKRPAGSVQNPVYHNQPLNPAPSRDPHYQDPHSTAVGNPEYLNTVQPTCVNSTFDSPAHWAQKGSHQISLDNPDYQQDFFPKEAKPNGIFKGSTAENAEYLRVAPQSSEFIGA

> <PDB ID(s) of Target Chain>
1IVO,1M14,1M17,1MOX,1XKK,1Z9I,2GS2,2GS6,2ITW,2ITX,2ITY,2J5E,2J5F,2J6M,2RF9,2RGP,3B2V,3BEL,3GOP,3POZ,3QWQ,3VJO,3W2O,3W2P,3W2Q,3W2R,3W2S,3W32,3W33,4G5J,4I23,4JQ7,4JQ8,4JR3,4JRV,4KRO,4LI5,4RJ4,4RJ5,4RJ6,4RJ7,4RJ8,4TKS,4UIP,4UV7,4WKQ,4WRG,4ZAU,5C8K,5C8M,5C8N,5CAL,5CAN,5CAO,5CAP,5CAQ,5CAS,5CAU,5CAV,5EDP,5EDQ,5EDR,5EM5,5EM6,5EM7,5EM8,5FED,5GNK,5HCX,5HCY,5HCZ,5HIB,5HIC,5UGB,5WB7,5WB8,5Y25,6S89,6S8A

> <UniProt (SwissProt) Recommended Name of Target Chain>
Epidermal growth factor receptor

> <UniProt (SwissProt) Entry Name of Target Chain>
EGFR_HUMAN

> <UniProt (SwissProt) Primary ID of Target Chain>
P00533

> <UniProt (SwissProt) Secondary ID(s) of Target Chain>
O00688,O00732,P06268,Q14225,Q68GS5,Q92795,Q9BZS2,Q9GZX1,Q9H2C9,Q9H3C9,Q9UMD7,Q9UMD8,Q9UMG5

> <UniProt (SwissProt) Alternative ID(s) of Target Chain>


> <UniProt (TrEMBL) Submitted Name of Target Chain>


> <UniProt (TrEMBL) Entry Name of Target Chain>


> <UniProt (TrEMBL) Primary ID of Target Chain>


> <UniProt (TrEMBL) Secondary ID(s) of Target Chain>


> <UniProt (TrEMBL) Alternative ID(s) of Target Chain>


> <training label>
5.02457

> <i_lp_mmshare_version>
54117

> <s_epik_input>
W0NIM11bQ0gyXU4oW0NIMl1bQ0gzXSlbQ0gyXVtDSDJdT2MoYyhbY0hdMSlPW0NIM10pW2NIXWMoYzEyKW5bY0hdbmMyW05IXWMzW2NIXWMoQnIpYyhbQ0gzXSlbY0hdW2NIXTM=

> <s_epik_cmdline>
J2VwaWtfcHl0aG9uJywgJy1waHQnLCAnMC4xJywgJy1waCcsICc3LjQnLCAnLXRuJywgJzgnLCAnLW1hJywgJzIwMCcsICctaW1hZScsICc8aW5maWxlLm1hZT4nLCAnLW9tYWUnLCAnPG91dGZpbGUubWFlPic=

> <r_lp_tautomer_probability>
0.999978000241998

> <r_epik_Ionization_Penalty>
  0.0610

> <r_epik_Ionization_Penalty_Charging>
  0.0604

> <r_epik_Ionization_Penalty_Neutral>
  0.0006

> <r_epik_State_Penalty>
  0.0524

> <r_epik_Charging_Adjusted_Penalty>
0.112841773912698

> <i_epik_Tot_Q>
1

> <i_epik_Tot_abs_Q>
1

> <i_f3d_flags>
0

> <s_lp_Force_Field>
OPLS_2005

> <r_lp_Energy>
28.316704

> <b_lp_Chiralities_Consistent>
1

> <s_lp_Variant>
BindingDB_50380472_mol_1-1

> <s_i_glide_gridfile>
struct_1_site_1

> <i_i_glide_lignum>
23

> <i_i_glide_rotatable_bonds>
9

> <r_i_docking_score>
-7.59433997948335

> <r_i_glide_ligand_efficiency>
-0.261873792395978

> <r_i_glide_ligand_efficiency_sa>
-0.804559257681262

> <r_i_glide_ligand_efficiency_ln>
-1.73891127945571

> <r_i_glide_gscore>
-7.64673997948336

> <r_i_glide_lipo>
-3.19530496662622

> <r_i_glide_hbond>
-0.32

> <r_i_glide_metal>
0

> <r_i_glide_rewards>
-1.41526848557837

> <r_i_glide_evdw>
-43.7224502563477

> <r_i_glide_ecoul>
-7.28317260742188

> <r_i_glide_erotb>
0.569778006125999

> <r_i_glide_esite>
-0.00734612947409924

> <r_i_glide_emodel>
-62.9043488033652

> <r_i_glide_energy>
-51.0056228637695

> <r_i_glide_einternal>
7.3217830657959

> <i_i_glide_confnum>
102

> <i_i_glide_posenum>
79

> <r_i_glide_eff_state_penalty>
0.0524

> <PMID>
22229669

> <r_glide_shape_similarity>
0.880451381206512

> <s_m_subgroup_title>
505 training

> <s_m_subgroupid>
pocket_pv

> <b_m_subgroup_collapsed>
0

$$$$
BindingDB_3516_mol_1
                    3D
 Schrodinger Suite 2021-2.
 32 34  0  0  1  0            999 V2000
   21.5119    0.6577   52.5008 C   0  0  0  0  0  0
   19.3449   -0.3828   52.8203 C   0  0  0  0  0  0
   19.9067   -1.1964   53.8304 C   0  0  0  0  0  0
   22.0734   -0.1605   53.4997 C   0  0  0  0  0  0
   21.2688   -1.1013   54.1741 C   0  0  0  0  0  0
   23.4361   -0.0930   53.8648 C   0  0  0  0  0  0
   23.0892   -1.7220   55.4053 C   0  0  0  0  0  0
   23.9354   -0.8900   54.8214 N   0  0  0  0  0  0
   21.8005   -1.8817   55.1316 N   0  0  0  0  0  0
   24.2883    0.8490   53.2756 N   0  0  0  0  0  0
   23.8237    1.6216   52.8326 H   0  0  0  0  0  0
   25.6838    0.9474   53.3464 C   0  0  0  0  0  0
   27.9134   -0.0547   53.3825 C   0  0  0  0  0  0
   26.5163   -0.1871   53.3348 C   0  0  0  0  0  0
   26.2751    2.2223   53.3740 C   0  0  0  0  0  0
   27.6721    2.3551   53.4267 C   0  0  0  0  0  0
   28.4927    1.2192   53.4348 C   0  0  0  0  0  0
   20.1619    0.5278   52.1486 C   0  0  0  0  0  0
   18.0329   -0.3909   52.4155 O   0  0  0  0  0  0
   17.1018   -1.0812   53.2097 C   0  0  0  0  0  0
   22.1121    1.3868   51.9773 H   0  0  0  0  0  0
   19.3028   -1.9058   54.3755 H   0  0  0  0  0  0
   23.4979   -2.3603   56.1729 H   0  0  0  0  0  0
   28.5419   -0.9333   53.3813 H   0  0  0  0  0  0
   26.0851   -1.1754   53.2862 H   0  0  0  0  0  0
   25.6633    3.1153   53.3708 H   0  0  0  0  0  0
   28.1109    3.3417   53.4556 H   0  0  0  0  0  0
   29.5680    1.3307   53.4655 H   0  0  0  0  0  0
   19.7384    1.1509   51.3732 H   0  0  0  0  0  0
   16.0917   -0.8825   52.8472 H   0  0  0  0  0  0
   17.1561   -0.7514   54.2464 H   0  0  0  0  0  0
   17.2731   -2.1575   53.1592 H   0  0  0  0  0  0
  1  4  2  0  0  0
  1 18  1  0  0  0
  1 21  1  0  0  0
  2  3  1  0  0  0
  2 18  2  0  0  0
  2 19  1  0  0  0
  3  5  2  0  0  0
  3 22  1  0  0  0
  4  5  1  0  0  0
  4  6  1  0  0  0
  5  9  1  0  0  0
  6  8  2  0  0  0
  6 10  1  0  0  0
  7  8  1  0  0  0
  7  9  2  0  0  0
  7 23  1  0  0  0
 10 11  1  0  0  0
 10 12  1  0  0  0
 12 14  2  0  0  0
 12 15  1  0  0  0
 13 14  1  0  0  0
 13 17  2  0  0  0
 13 24  1  0  0  0
 14 25  1  0  0  0
 15 16  2  0  0  0
 15 26  1  0  0  0
 16 17  1  0  0  0
 16 27  1  0  0  0
 17 28  1  0  0  0
 18 29  1  0  0  0
 19 20  1  0  0  0
 20 30  1  0  0  0
 20 31  1  0  0  0
 20 32  1  0  0  0
M  END
> <s_m_entry_id>
303

> <s_m_entry_name>
pocket_pv.114

> <s_m_Source_Path>
/home/bortolaa/Project/GT/mario-master/docking/set505protein_struct_1_site_1_set505ligs_train

> <s_m_Source_File>
pocket_pv.maegz

> <i_m_Source_File_Index>
114

> <From>
www.bindingDB.org

> <BindingDB Reactant_set_id>
5277

> <Ligand InChI>
InChI=1S/C15H13N3O/c1-19-12-7-8-13-14(9-12)16-10-17-15(13)18-11-5-3-2-4-6-11/h2-10H,1H3,(H,16,17,18)

> <Ligand InChI Key>
LHBIFPBTEJYQLV-UHFFFAOYSA-N

> <BindingDB MonomerID>
3516

> <BindingDB Ligand Name>
7-methoxy-N-phenylquinazolin-4-amine::CHEMBL92398::PD153035 Analog 15

> <Target Name Assigned by Curator or DataSource>
Epidermal growth factor receptor

> <Target Source Organism According to Curator or DataSource>
Homo sapiens

> <Ki (nM)>


> <Kd (nM)>


> <EC50 (nM)>


> <kon (M-1-s-1)>


> <koff (s-1)>


> <Curation/DataSource>
Curated from the literature by BindingDB

> <Article DOI>
10.1021/bi060184f

> <PMID>


> <PubChem AID>


> <Patent Number>


> <Authors>
Bridges, AJ; Zhou, HR; Cody, DR; Rewcastle, GW; McMichael, A; Showalter, HH; Fry, DW; Kraker, AJ; Denny, WA

> <Institution>
Parke-Davis Pharmaceutical Research

> <Link to Ligand in BindingDB>
http://www.bindingdb.org/bind/chemsearch/marvin/MolStructure.jsp?monomerid=3516

> <Link to Ligand-Target Pair in BindingDB>
http://www.bindingdb.org/jsp/dbsearch/PrimarySearch_ki.jsp?energyterm=kJ/mole&tag=r21&monomerid=3516&enzyme=Epidermal+growth+factor+receptor&column=ki&startPg=0&Increment=50&submit=Search

> <Ligand HET ID in PDB>


> <PDB ID(s) for Ligand-Target Complex>


> <PubChem CID>
5328190

> <PubChem SID>
8033244

> <ChEBI ID of Ligand>


> <ChEMBL ID of Ligand>
CHEMBL92398

> <DrugBank ID of Ligand>


> <IUPHAR_GRAC ID of Ligand>


> <KEGG ID of Ligand>


> <ZINC ID of Ligand>
ZINC03815280

> <Number of Protein Chains in Target (>
1

> <BindingDB Target Chain Sequence>
MRPSGTAGAALLALLAALCPASRALEEKKVCQGTSNKLTQLGTFEDHFLSLQRMFNNCEVVLGNLEITYVQRNYDLSFLKTIQEVAGYVLIALNTVERIPLENLQIIRGNMYYENSYALAVLSNYDANKTGLKELPMRNLQEILHGAVRFSNNPALCNVESIQWRDIVSSDFLSNMSMDFQNHLGSCQKCDPSCPNGSCWGAGEENCQKLTKIICAQQCSGRCRGKSPSDCCHNQCAAGCTGPRESDCLVCRKFRDEATCKDTCPPLMLYNPTTYQMDVNPEGKYSFGATCVKKCPRNYVVTDHGSCVRACGADSYEMEEDGVRKCKKCEGPCRKVCNGIGIGEFKDSLSINATNIKHFKNCTSISGDLHILPVAFRGDSFTHTPPLDPQELDILKTVKEITGFLLIQAWPENRTDLHAFENLEIIRGRTKQHGQFSLAVVSLNITSLGLRSLKEISDGDVIISGNKNLCYANTINWKKLFGTSGQKTKIISNRGENSCKATGQVCHALCSPEGCWGPEPRDCVSCRNVSRGRECVDKCNLLEGEPREFVENSECIQCHPECLPQAMNITCTGRGPDNCIQCAHYIDGPHCVKTCPAGVMGENNTLVWKYADAGHVCHLCHPNCTYGCTGPGLEGCPTNGPKIPSIATGMVGALLLLLVVALGIGLFMRRRHIVRKRTLRRLLQERELVEPLTPSGEAPNQALLRILKETEFKKIKVLGSGAFGTVYKGLWIPEGEKVKIPVAIKELREATSPKANKEILDEAYVMASVDNPHVCRLLGICLTSTVQLITQLMPFGCLLDYVREHKDNIGSQYLLNWCVQIAKGMNYLEDRRLVHRDLAARNVLVKTPQHVKITDFGLAKLLGAEEKEYHAEGGKVPIKWMALESILHRIYTHQSDVWSYGVTVWELMTFGSKPYDGIPASEISSILEKGERLPQPPICTIDVYMIMVKCWMIDADSRPKFRELIIEFSKMARDPQRYLVIQGDERMHLPSPTDSNFYRALMDEEDMDDVVDADEYLIPQQGFFSSPSTSRTPLLSSLSATSNNSTVACIDRNGLQSCPIKEDSFLQRYSSDPTGALTEDSIDDTFLPVPEYINQSVPKRPAGSVQNPVYHNQPLNPAPSRDPHYQDPHSTAVGNPEYLNTVQPTCVNSTFDSPAHWAQKGSHQISLDNPDYQQDFFPKEAKPNGIFKGSTAENAEYLRVAPQSSEFIGA

> <PDB ID(s) of Target Chain>
1IVO,1M14,1M17,1MOX,1XKK,1Z9I,2GS2,2GS6,2ITW,2ITX,2ITY,2J5E,2J5F,2J6M,2RF9,2RGP,3B2V,3BEL,3GOP,3POZ,3QWQ,3VJO,3W2O,3W2P,3W2Q,3W2R,3W2S,3W32,3W33,4G5J,4I23,4JQ7,4JQ8,4JR3,4JRV,4KRO,4LI5,4RJ4,4RJ5,4RJ6,4RJ7,4RJ8,4TKS,4UIP,4UV7,4WKQ,4WRG,4ZAU,5C8K,5C8M,5C8N,5CAL,5CAN,5CAO,5CAP,5CAQ,5CAS,5CAU,5CAV,5EDP,5EDQ,5EDR,5EM5,5EM6,5EM7,5EM8,5FED,5GNK,5HCX,5HCY,5HCZ,5HIB,5HIC,5UGB,5WB7,5WB8,5Y25,6S89,6S8A

> <UniProt (SwissProt) Recommended Name of Target Chain>
Epidermal growth factor receptor

> <UniProt (SwissProt) Entry Name of Target Chain>
EGFR_HUMAN

> <UniProt (SwissProt) Primary ID of Target Chain>
P00533

> <UniProt (SwissProt) Secondary ID(s) of Target Chain>
O00688,O00732,P06268,Q14225,Q68GS5,Q92795,Q9BZS2,Q9GZX1,Q9H2C9,Q9H3C9,Q9UMD7,Q9UMD8,Q9UMG5

> <UniProt (SwissProt) Alternative ID(s) of Target Chain>


> <UniProt (TrEMBL) Submitted Name of Target Chain>


> <UniProt (TrEMBL) Entry Name of Target Chain>


> <UniProt (TrEMBL) Primary ID of Target Chain>


> <UniProt (TrEMBL) Secondary ID(s) of Target Chain>


> <UniProt (TrEMBL) Alternative ID(s) of Target Chain>


> <training label>
6.92082

> <i_lp_mmshare_version>
54117

> <s_epik_input>
W2NIXTFbY0hdYyhPW0NIM10pW2NIXWMoYzEyKW5bY0hdbmMyW05IXWMzW2NIXVtjSF1bY0hdW2NIXVtjSF0z

> <s_epik_cmdline>
J2VwaWtfcHl0aG9uJywgJy1waHQnLCAnMC4xJywgJy1waCcsICc3LjQnLCAnLXRuJywgJzgnLCAnLW1hJywgJzIwMCcsICctaW1hZScsICc8aW5maWxlLm1hZT4nLCAnLW9tYWUnLCAnPG91dGZpbGUubWFlPic=

> <r_lp_tautomer_probability>
1

> <r_epik_Ionization_Penalty>
  0.0009

> <r_epik_Ionization_Penalty_Charging>
  0.0000

> <r_epik_Ionization_Penalty_Neutral>
  0.0009

> <r_epik_State_Penalty>
  0.0000

> <r_epik_Charging_Adjusted_Penalty>
0

> <i_epik_Tot_Q>
0

> <i_epik_Tot_abs_Q>
0

> <i_f3d_flags>
0

> <s_lp_Force_Field>
OPLS_2005

> <r_lp_Energy>
17.034857

> <b_lp_Chiralities_Consistent>
1

> <s_lp_Variant>
BindingDB_3516_mol_1-1

> <s_i_glide_gridfile>
struct_1_site_1

> <i_i_glide_lignum>
147

> <i_i_glide_rotatable_bonds>
3

> <r_i_docking_score>
-7.58953278463918

> <r_i_glide_ligand_efficiency>
-0.399449093928378

> <r_i_glide_ligand_efficiency_sa>
-1.06589061977282

> <r_i_glide_ligand_efficiency_ln>
-1.92410956912383

> <r_i_glide_gscore>
-7.58953278463918

> <r_i_glide_lipo>
-2.47357238721109

> <r_i_glide_hbond>
-0.32

> <r_i_glide_metal>
0

> <r_i_glide_rewards>
-2.86753603315969

> <r_i_glide_evdw>
-32.9862098693848

> <r_i_glide_ecoul>
-5.5614595413208

> <r_i_glide_erotb>
0.555105060398953

> <r_i_glide_esite>
0

> <r_i_glide_emodel>
-27.9897903410968

> <r_i_glide_energy>
-38.5476694107056

> <r_i_glide_einternal>
1.52443528175354

> <i_i_glide_confnum>
4

> <i_i_glide_posenum>
295

> <r_i_glide_eff_state_penalty>
0

> <IC50 (nM)>
120

> <Temp C>
22

> <r_glide_shape_similarity>
0.709254562854767

> <pH>
7.4

> <s_m_subgroup_title>
505 training

> <s_m_subgroupid>
pocket_pv

> <b_m_subgroup_collapsed>
0

$$$$
BindingDB_50366684_mol_1
                    3D
 Schrodinger Suite 2021-2.
 56 59  0  0  1  0            999 V2000
   22.0735   -0.1724   53.5014 C   0  0  0  0  0  0
   23.4398   -0.1002   53.8687 C   0  0  0  0  0  0
   21.2641   -1.1234   54.1793 C   0  0  0  0  0  0
   21.5118    0.6596   52.5073 C   0  0  0  0  0  0
   23.9430   -0.9058   54.8302 N   0  0  0  0  0  0
   19.8954   -1.2208   53.8280 C   0  0  0  0  0  0
   24.2866    0.8523   53.2737 N   0  0  0  0  0  0
   20.1479    0.5658   52.1823 C   0  0  0  0  0  0
   19.3187   -0.3812   52.8332 C   0  0  0  0  0  0
   27.9119   -0.0723   53.3846 C   0  0  0  0  0  0
   21.8006   -1.9076   55.1433 N   0  0  0  0  0  0
   26.5100   -0.1997   53.3294 C   0  0  0  0  0  0
   21.4866    3.1321   49.4857 N   0  0  0  0  0  0
   23.0976   -1.7507   55.4173 C   0  0  0  0  0  0
   25.6831    0.9496   53.3401 C   0  0  0  0  0  0
   19.6362    1.5348   51.3578 O   0  0  0  0  0  0
   28.4921    1.2115   53.4591 C   0  0  0  0  0  0
   20.3400    2.9082   48.5847 C   0  0  0  0  0  0
   23.6604    4.7817   50.4634 O   0  0  0  0  0  0
   27.6769    2.3640   53.4305 C   0  0  0  0  0  0
   19.0274    2.4601   49.2649 C   0  0  2  0  0  0
   28.9072   -1.4905   53.3656 Cl  0  0  0  0  0  0
   19.2133    1.1423   50.0579 C   0  0  0  0  0  0
   26.2745    2.2332   53.3677 C   0  0  0  0  0  0
   29.8337    1.3246   53.5801 F   0  0  0  0  0  0
   17.9780   -0.3775   52.4845 O   0  0  0  0  0  0
   18.0337    2.3266   48.2662 O   0  0  0  0  0  0
   21.2687    4.2835   50.3893 C   0  0  0  0  0  0
   22.7354    3.3200   48.7198 C   0  0  0  0  0  0
   23.9517    3.6524   49.6290 C   0  0  0  0  0  0
   22.4964    4.6059   51.2858 C   0  0  0  0  0  0
   17.0704   -1.1890   53.2133 C   0  0  0  0  0  0
   22.1014    1.4056   51.9954 H   0  0  0  0  0  0
   19.2889   -1.9350   54.3621 H   0  0  0  0  0  0
   23.8188    1.6287   52.8300 H   0  0  0  0  0  0
   26.0746   -1.1869   53.2737 H   0  0  0  0  0  0
   23.5096   -2.3951   56.1779 H   0  0  0  0  0  0
   20.1463    3.8261   48.0269 H   0  0  0  0  0  0
   20.6141    2.1572   47.8430 H   0  0  0  0  0  0
   28.1242    3.3469   53.4735 H   0  0  0  0  0  0
   18.6621    3.2334   49.9420 H   0  0  0  0  0  0
   18.2756    0.5841   50.1228 H   0  0  0  0  0  0
   19.9597    0.5021   49.5798 H   0  0  0  0  0  0
   25.6642    3.1262   53.3528 H   0  0  0  0  0  0
   18.2522    1.5896   47.7062 H   0  0  0  0  0  0
   20.4112    4.0993   51.0335 H   0  0  0  0  0  0
   21.0296    5.1680   49.7973 H   0  0  0  0  0  0
   22.6046    4.1055   47.9685 H   0  0  0  0  0  0
   22.9563    2.4058   48.1628 H   0  0  0  0  0  0
   24.8285    3.8742   49.0217 H   0  0  0  0  0  0
   24.2064    2.7944   50.2560 H   0  0  0  0  0  0
   22.3226    5.5282   51.8408 H   0  0  0  0  0  0
   22.6689    3.8243   52.0307 H   0  0  0  0  0  0
   16.0577   -1.0121   52.8519 H   0  0  0  0  0  0
   17.2955   -2.2475   53.0762 H   0  0  0  0  0  0
   17.0865   -0.9576   54.2783 H   0  0  0  0  0  0
  1  2  1  0  0  0
  1  3  1  0  0  0
  1  4  2  0  0  0
  2  5  2  0  0  0
  2  7  1  0  0  0
  3  6  2  0  0  0
  3 11  1  0  0  0
  4  8  1  0  0  0
  4 33  1  0  0  0
  5 14  1  0  0  0
  6  9  1  0  0  0
  6 34  1  0  0  0
  7 15  1  0  0  0
  7 35  1  0  0  0
  8  9  2  0  0  0
  8 16  1  0  0  0
  9 26  1  0  0  0
 10 12  1  0  0  0
 10 17  2  0  0  0
 10 22  1  0  0  0
 11 14  2  0  0  0
 12 15  2  0  0  0
 12 36  1  0  0  0
 13 18  1  0  0  0
 13 28  1  0  0  0
 13 29  1  0  0  0
 14 37  1  0  0  0
 15 24  1  0  0  0
 16 23  1  0  0  0
 17 20  1  0  0  0
 17 25  1  0  0  0
 18 21  1  0  0  0
 18 38  1  0  0  0
 18 39  1  0  0  0
 19 30  1  0  0  0
 19 31  1  0  0  0
 20 24  2  0  0  0
 20 40  1  0  0  0
 21 23  1  0  0  0
 21 27  1  0  0  0
 21 41  1  0  0  0
 23 42  1  0  0  0
 23 43  1  0  0  0
 24 44  1  0  0  0
 26 32  1  0  0  0
 27 45  1  0  0  0
 28 31  1  0  0  0
 28 46  1  0  0  0
 28 47  1  0  0  0
 29 30  1  0  0  0
 29 48  1  0  0  0
 29 49  1  0  0  0
 30 50  1  0  0  0
 30 51  1  0  0  0
 31 52  1  0  0  0
 31 53  1  0  0  0
 32 54  1  0  0  0
 32 55  1  0  0  0
 32 56  1  0  0  0
M  END
> <s_m_entry_id>
304

> <s_m_entry_name>
pocket_pv.115

> <s_m_Source_Path>
/home/bortolaa/Project/GT/mario-master/docking/set505protein_struct_1_site_1_set505ligs_train

> <s_m_Source_File>
pocket_pv.maegz

> <i_m_Source_File_Index>
115

> <From>
www.bindingDB.org

> <BindingDB Reactant_set_id>
50733028

> <Ligand InChI>
InChI=1S/C22H24ClFN4O4/c1-30-20-10-19-16(9-21(20)32-12-15(29)11-28-4-6-31-7-5-28)22(26-13-25-19)27-14-2-3-18(24)17(23)8-14/h2-3,8-10,13,15,29H,4-7,11-12H2,1H3,(H,25,26,27)/t15-/m1/s1

> <Ligand InChI Key>
COMSCFFBTPULJA-OAHLLOKOSA-N

> <BindingDB MonomerID>
50366684

> <BindingDB Ligand Name>
CHEMBL1788321

> <Target Name Assigned by Curator or DataSource>
Epidermal growth factor receptor

> <Target Source Organism According to Curator or DataSource>
Homo sapiens

> <Ki (nM)>


> <Kd (nM)>


> <EC50 (nM)>


> <kon (M-1-s-1)>


> <koff (s-1)>


> <pH>


> <Temp C>


> <Curation/DataSource>
ChEMBL

> <Article DOI>
10.1016/s0960-894x(01)00344-4

> <PubChem AID>


> <Patent Number>


> <Authors>
Barker, AJ; Gibson, KH; Grundy, W; Godfrey, AA; Barlow, JJ; Healy, MP; Woodburn, JR; Ashton, SE; Curry, BJ; Scarlett, L; Henthorn, L; Richards, L

> <Institution>
AstraZeneca

> <Link to Ligand in BindingDB>
http://www.bindingdb.org/bind/chemsearch/marvin/MolStructure.jsp?monomerid=50366684

> <Link to Ligand-Target Pair in BindingDB>
http://www.bindingdb.org/jsp/dbsearch/PrimarySearch_ki.jsp?energyterm=kJ/mole&tag=r21&monomerid=50366684&enzyme=Epidermal+growth+factor+receptor&column=ki&startPg=0&Increment=50&submit=Search

> <Ligand HET ID in PDB>


> <PDB ID(s) for Ligand-Target Complex>


> <PubChem CID>
54580996

> <PubChem SID>
160845786

> <ChEBI ID of Ligand>


> <ChEMBL ID of Ligand>
CHEMBL1788321

> <DrugBank ID of Ligand>


> <IUPHAR_GRAC ID of Ligand>


> <KEGG ID of Ligand>


> <ZINC ID of Ligand>
ZINC29559580

> <Number of Protein Chains in Target (>
1

> <BindingDB Target Chain Sequence>
MRPSGTAGAALLALLAALCPASRALEEKKVCQGTSNKLTQLGTFEDHFLSLQRMFNNCEVVLGNLEITYVQRNYDLSFLKTIQEVAGYVLIALNTVERIPLENLQIIRGNMYYENSYALAVLSNYDANKTGLKELPMRNLQEILHGAVRFSNNPALCNVESIQWRDIVSSDFLSNMSMDFQNHLGSCQKCDPSCPNGSCWGAGEENCQKLTKIICAQQCSGRCRGKSPSDCCHNQCAAGCTGPRESDCLVCRKFRDEATCKDTCPPLMLYNPTTYQMDVNPEGKYSFGATCVKKCPRNYVVTDHGSCVRACGADSYEMEEDGVRKCKKCEGPCRKVCNGIGIGEFKDSLSINATNIKHFKNCTSISGDLHILPVAFRGDSFTHTPPLDPQELDILKTVKEITGFLLIQAWPENRTDLHAFENLEIIRGRTKQHGQFSLAVVSLNITSLGLRSLKEISDGDVIISGNKNLCYANTINWKKLFGTSGQKTKIISNRGENSCKATGQVCHALCSPEGCWGPEPRDCVSCRNVSRGRECVDKCNLLEGEPREFVENSECIQCHPECLPQAMNITCTGRGPDNCIQCAHYIDGPHCVKTCPAGVMGENNTLVWKYADAGHVCHLCHPNCTYGCTGPGLEGCPTNGPKIPSIATGMVGALLLLLVVALGIGLFMRRRHIVRKRTLRRLLQERELVEPLTPSGEAPNQALLRILKETEFKKIKVLGSGAFGTVYKGLWIPEGEKVKIPVAIKELREATSPKANKEILDEAYVMASVDNPHVCRLLGICLTSTVQLITQLMPFGCLLDYVREHKDNIGSQYLLNWCVQIAKGMNYLEDRRLVHRDLAARNVLVKTPQHVKITDFGLAKLLGAEEKEYHAEGGKVPIKWMALESILHRIYTHQSDVWSYGVTVWELMTFGSKPYDGIPASEISSILEKGERLPQPPICTIDVYMIMVKCWMIDADSRPKFRELIIEFSKMARDPQRYLVIQGDERMHLPSPTDSNFYRALMDEEDMDDVVDADEYLIPQQGFFSSPSTSRTPLLSSLSATSNNSTVACIDRNGLQSCPIKEDSFLQRYSSDPTGALTEDSIDDTFLPVPEYINQSVPKRPAGSVQNPVYHNQPLNPAPSRDPHYQDPHSTAVGNPEYLNTVQPTCVNSTFDSPAHWAQKGSHQISLDNPDYQQDFFPKEAKPNGIFKGSTAENAEYLRVAPQSSEFIGA

> <PDB ID(s) of Target Chain>
1IVO,1M14,1M17,1MOX,1XKK,1Z9I,2GS2,2GS6,2ITW,2ITX,2ITY,2J5E,2J5F,2J6M,2RF9,2RGP,3B2V,3BEL,3GOP,3POZ,3QWQ,3VJO,3W2O,3W2P,3W2Q,3W2R,3W2S,3W32,3W33,4G5J,4I23,4JQ7,4JQ8,4JR3,4JRV,4KRO,4LI5,4RJ4,4RJ5,4RJ6,4RJ7,4RJ8,4TKS,4UIP,4UV7,4WKQ,4WRG,4ZAU,5C8K,5C8M,5C8N,5CAL,5CAN,5CAO,5CAP,5CAQ,5CAS,5CAU,5CAV,5EDP,5EDQ,5EDR,5EM5,5EM6,5EM7,5EM8,5FED,5GNK,5HCX,5HCY,5HCZ,5HIB,5HIC,5UGB,5WB7,5WB8,5Y25,6S89,6S8A

> <UniProt (SwissProt) Recommended Name of Target Chain>
Epidermal growth factor receptor

> <UniProt (SwissProt) Entry Name of Target Chain>
EGFR_HUMAN

> <UniProt (SwissProt) Primary ID of Target Chain>
P00533

> <UniProt (SwissProt) Secondary ID(s) of Target Chain>
O00688,O00732,P06268,Q14225,Q68GS5,Q92795,Q9BZS2,Q9GZX1,Q9H2C9,Q9H3C9,Q9UMD7,Q9UMD8,Q9UMG5

> <UniProt (SwissProt) Alternative ID(s) of Target Chain>


> <UniProt (TrEMBL) Submitted Name of Target Chain>


> <UniProt (TrEMBL) Entry Name of Target Chain>


> <UniProt (TrEMBL) Primary ID of Target Chain>


> <UniProt (TrEMBL) Secondary ID(s) of Target Chain>


> <UniProt (TrEMBL) Alternative ID(s) of Target Chain>


> <training label>
7.17393

> <i_lp_mmshare_version>
54117

> <s_epik_input>
RmMxW2NIXVtjSF1jKFtjSF1jMUNsKVtOSF1jMm5bY0hdbmMoYzIzKVtjSF1jKE9bQ0gzXSljKFtjSF0zKU9bQ0gyXVtDQEhdKFtPSF0pW0NIMl1ONFtDSDJdW0NIMl1PW0NIMl1bQ0gyXTQ=

> <s_epik_cmdline>
J2VwaWtfcHl0aG9uJywgJy1waHQnLCAnMC4xJywgJy1waCcsICc3LjQnLCAnLXRuJywgJzgnLCAnLW1hJywgJzIwMCcsICctaW1hZScsICc8aW5maWxlLm1hZT4nLCAnLW9tYWUnLCAnPG91dGZpbGUubWFlPic=

> <r_lp_tautomer_probability>
0.999978000241998

> <r_epik_Ionization_Penalty>
  0.0959

> <r_epik_Ionization_Penalty_Charging>
  0.0000

> <r_epik_Ionization_Penalty_Neutral>
  0.0959

> <r_epik_State_Penalty>
  0.0855

> <r_epik_Charging_Adjusted_Penalty>
0.0855438801523878

> <i_epik_Tot_Q>
0

> <i_epik_Tot_abs_Q>
0

> <i_f3d_flags>
0

> <s_lp_Force_Field>
OPLS_2005

> <r_lp_Energy>
43.593675

> <b_lp_Chiralities_Consistent>
1

> <s_lp_Variant>
BindingDB_50366684_mol_1-1

> <s_i_glide_gridfile>
struct_1_site_1

> <i_i_glide_lignum>
178

> <i_i_glide_rotatable_bonds>
9

> <r_i_docking_score>
-7.5796091311975

> <r_i_glide_ligand_efficiency>
-0.236862785349922

> <r_i_glide_ligand_efficiency_sa>
-0.751992468404432

> <r_i_glide_ligand_efficiency_ln>
-1.69728109681667

> <r_i_glide_gscore>
-7.6651091311975

> <r_i_glide_lipo>
-3.01253222448893

> <r_i_glide_hbond>
-0.608

> <r_i_glide_metal>
0

> <r_i_glide_rewards>
-1.39877106864869

> <r_i_glide_evdw>
-44.9125289916992

> <r_i_glide_ecoul>
-5.98683166503906

> <r_i_glide_erotb>
0.564152353136168

> <r_i_glide_esite>
-0.0663069918552294

> <r_i_glide_emodel>
-53.659411890417

> <r_i_glide_energy>
-50.8993606567383

> <r_i_glide_einternal>
5.92129230499268

> <i_i_glide_confnum>
29

> <i_i_glide_posenum>
227

> <r_i_glide_eff_state_penalty>
0.0855

> <IC50 (nM)>
67

> <PMID>
11459659

> <r_glide_shape_similarity>
0.796159744262695

> <s_m_subgroup_title>
505 training

> <s_m_subgroupid>
pocket_pv

> <b_m_subgroup_collapsed>
0

$$$$
BindingDB_50189994_mol_1
                    3D
 Schrodinger Suite 2021-2.
 52 55  0  0  1  0            999 V2000
   21.8139   -1.9108   55.1527 N   0  0  0  0  0  0
   23.1101   -1.7469   55.4157 C   0  0  0  0  0  0
   23.9405   -0.8947   54.8211 N   0  0  0  0  0  0
   23.4275   -0.0928   53.8596 C   0  0  0  0  0  0
   21.2665   -1.1293   54.1951 C   0  0  0  0  0  0
   22.0527   -0.1682   53.4943 C   0  0  0  0  0  0
   21.4498    0.6399   52.4872 C   0  0  0  0  0  0
   20.0669    0.4704   52.1911 C   0  0  0  0  0  0
   19.2859   -0.4638   52.8983 C   0  0  0  0  0  0
   19.8958   -1.2618   53.8889 C   0  0  0  0  0  0
   17.9418   -0.5282   52.5587 O   0  0  0  0  0  0
   19.3194    1.1446   51.2596 O   0  0  0  0  0  0
   19.8261    2.1667   50.4402 C   0  0  1  0  0  0
   24.2797    0.8561   53.2648 N   0  0  0  0  0  0
   25.6803    0.9500   53.3358 C   0  0  0  0  0  0
   26.5087   -0.2010   53.3249 C   0  0  0  0  0  0
   27.9117   -0.0764   53.3896 C   0  0  0  0  0  0
   28.4928    1.2085   53.4736 C   0  0  0  0  0  0
   27.6781    2.3629   53.4379 C   0  0  0  0  0  0
   26.2757    2.2333   53.3655 C   0  0  0  0  0  0
   28.9039   -1.4976   53.3755 Cl  0  0  0  0  0  0
   17.0460   -1.2277   53.4111 C   0  0  0  0  0  0
   20.6637    1.5639   49.2927 C   0  0  0  0  0  0
   20.8761    2.6204   48.1851 C   0  0  0  0  0  0
   19.5561    3.1203   47.6697 N   0  3  1  0  0  0
   18.7675    3.7858   48.7476 C   0  0  0  0  0  0
   18.5126    2.8032   49.9004 C   0  0  0  0  0  0
   19.7055    3.9885   46.4634 C   0  0  0  0  0  0
   29.8339    1.3215   53.6191 F   0  0  0  0  0  0
   23.5471   -2.3855   56.1690 H   0  0  0  0  0  0
   22.0346    1.3720   51.9543 H   0  0  0  0  0  0
   19.3119   -1.9845   54.4380 H   0  0  0  0  0  0
   20.3903    2.9041   51.0162 H   0  0  0  0  0  0
   23.8124    1.6385   52.8305 H   0  0  0  0  0  0
   26.0770   -1.1896   53.2608 H   0  0  0  0  0  0
   28.1238    3.3462   53.4925 H   0  0  0  0  0  0
   25.6704    3.1284   53.3522 H   0  0  0  0  0  0
   16.0200   -1.0744   53.0778 H   0  0  0  0  0  0
   17.2459   -2.2994   53.3986 H   0  0  0  0  0  0
   17.1135   -0.8679   54.4373 H   0  0  0  0  0  0
   20.1358    0.7096   48.8698 H   0  0  0  0  0  0
   21.6201    1.1835   49.6506 H   0  0  0  0  0  0
   21.4676    2.1945   47.3744 H   0  0  0  0  0  0
   21.4625    3.4592   48.5703 H   0  0  0  0  0  0
   17.8185    4.1381   48.3418 H   0  0  0  0  0  0
   19.3044    4.6649   49.1131 H   0  0  0  0  0  0
   17.9863    3.3018   50.7176 H   0  0  0  0  0  0
   17.8345    2.0268   49.5433 H   0  0  0  0  0  0
   20.2892    4.8816   46.6988 H   0  0  0  0  0  0
   20.2118    3.4488   45.6635 H   0  0  0  0  0  0
   18.7372    4.3093   46.0810 H   0  0  0  0  0  0
   19.0105    2.3006   47.3929 H   0  0  0  0  0  0
  1  2  1  0  0  0
  1  5  2  0  0  0
  2  3  2  0  0  0
  2 30  1  0  0  0
  3  4  1  0  0  0
  4  6  2  0  0  0
  4 14  1  0  0  0
  5  6  1  0  0  0
  5 10  1  0  0  0
  6  7  1  0  0  0
  7  8  2  0  0  0
  7 31  1  0  0  0
  8  9  1  0  0  0
  8 12  1  0  0  0
  9 10  2  0  0  0
  9 11  1  0  0  0
 10 32  1  0  0  0
 11 22  1  0  0  0
 12 13  1  0  0  0
 13 23  1  0  0  0
 13 27  1  0  0  0
 13 33  1  0  0  0
 14 15  1  0  0  0
 14 34  1  0  0  0
 15 16  2  0  0  0
 15 20  1  0  0  0
 16 17  1  0  0  0
 16 35  1  0  0  0
 17 18  2  0  0  0
 17 21  1  0  0  0
 18 19  1  0  0  0
 18 29  1  0  0  0
 19 20  2  0  0  0
 19 36  1  0  0  0
 20 37  1  0  0  0
 22 38  1  0  0  0
 22 39  1  0  0  0
 22 40  1  0  0  0
 23 24  1  0  0  0
 23 41  1  0  0  0
 23 42  1  0  0  0
 24 25  1  0  0  0
 24 43  1  0  0  0
 24 44  1  0  0  0
 25 26  1  0  0  0
 25 28  1  0  0  0
 25 52  1  0  0  0
 26 27  1  0  0  0
 26 45  1  0  0  0
 26 46  1  0  0  0
 27 47  1  0  0  0
 27 48  1  0  0  0
 28 49  1  0  0  0
 28 50  1  0  0  0
 28 51  1  0  0  0
M  CHG  1  25   1
M  END
> <s_m_entry_id>
305

> <s_m_entry_name>
pocket_pv.116

> <s_m_Source_Path>
/home/bortolaa/Project/GT/mario-master/docking/set505protein_struct_1_site_1_set505ligs_train

> <s_m_Source_File>
pocket_pv.maegz

> <i_m_Source_File_Index>
116

> <From>
www.bindingDB.org

> <BindingDB Reactant_set_id>
50351566

> <Ligand InChI>
InChI=1S/C21H22ClFN4O2/c1-27-7-5-14(6-8-27)29-20-10-15-18(11-19(20)28-2)24-12-25-21(15)26-13-3-4-17(23)16(22)9-13/h3-4,9-12,14H,5-8H2,1-2H3,(H,24,25,26)

> <Ligand InChI Key>
AHPPMJNZFROCCT-UHFFFAOYSA-N

> <BindingDB MonomerID>
50189994

> <BindingDB Ligand Name>
CHEMBL276154::N-(3-chloro-4-fluorophenyl)-7-methoxy-6-(1-methylpiperidin-4-yloxy)quinazolin-4-amine

> <Target Name Assigned by Curator or DataSource>
Epidermal growth factor receptor

> <Target Source Organism According to Curator or DataSource>
Homo sapiens

> <Ki (nM)>


> <Kd (nM)>


> <EC50 (nM)>


> <kon (M-1-s-1)>


> <koff (s-1)>


> <pH>


> <Temp C>


> <Curation/DataSource>
ChEMBL

> <Article DOI>
10.1016/j.bmcl.2006.06.054

> <PubChem AID>


> <Patent Number>


> <Authors>
Ballard, P; Bradbury, RH; Harris, CS; Hennequin, LF; Hickinson, M; Kettle, JG; Kendrew, J; Klinowska, T; Ogilvie, DJ; Pearson, SE; Williams, EJ; Wilson, I

> <Institution>
AstraZeneca

> <Link to Ligand in BindingDB>
http://www.bindingdb.org/bind/chemsearch/marvin/MolStructure.jsp?monomerid=50189994

> <Link to Ligand-Target Pair in BindingDB>
http://www.bindingdb.org/jsp/dbsearch/PrimarySearch_ki.jsp?energyterm=kJ/mole&tag=r21&monomerid=50189994&enzyme=Epidermal+growth+factor+receptor&column=ki&startPg=0&Increment=50&submit=Search

> <Ligand HET ID in PDB>


> <PDB ID(s) for Ligand-Target Complex>


> <PubChem CID>
10173248

> <PubChem SID>
104073416

> <ChEBI ID of Ligand>


> <ChEMBL ID of Ligand>
CHEMBL276154

> <DrugBank ID of Ligand>


> <IUPHAR_GRAC ID of Ligand>


> <KEGG ID of Ligand>


> <ZINC ID of Ligand>
ZINC34375617

> <Number of Protein Chains in Target (>
1

> <BindingDB Target Chain Sequence>
MRPSGTAGAALLALLAALCPASRALEEKKVCQGTSNKLTQLGTFEDHFLSLQRMFNNCEVVLGNLEITYVQRNYDLSFLKTIQEVAGYVLIALNTVERIPLENLQIIRGNMYYENSYALAVLSNYDANKTGLKELPMRNLQEILHGAVRFSNNPALCNVESIQWRDIVSSDFLSNMSMDFQNHLGSCQKCDPSCPNGSCWGAGEENCQKLTKIICAQQCSGRCRGKSPSDCCHNQCAAGCTGPRESDCLVCRKFRDEATCKDTCPPLMLYNPTTYQMDVNPEGKYSFGATCVKKCPRNYVVTDHGSCVRACGADSYEMEEDGVRKCKKCEGPCRKVCNGIGIGEFKDSLSINATNIKHFKNCTSISGDLHILPVAFRGDSFTHTPPLDPQELDILKTVKEITGFLLIQAWPENRTDLHAFENLEIIRGRTKQHGQFSLAVVSLNITSLGLRSLKEISDGDVIISGNKNLCYANTINWKKLFGTSGQKTKIISNRGENSCKATGQVCHALCSPEGCWGPEPRDCVSCRNVSRGRECVDKCNLLEGEPREFVENSECIQCHPECLPQAMNITCTGRGPDNCIQCAHYIDGPHCVKTCPAGVMGENNTLVWKYADAGHVCHLCHPNCTYGCTGPGLEGCPTNGPKIPSIATGMVGALLLLLVVALGIGLFMRRRHIVRKRTLRRLLQERELVEPLTPSGEAPNQALLRILKETEFKKIKVLGSGAFGTVYKGLWIPEGEKVKIPVAIKELREATSPKANKEILDEAYVMASVDNPHVCRLLGICLTSTVQLITQLMPFGCLLDYVREHKDNIGSQYLLNWCVQIAKGMNYLEDRRLVHRDLAARNVLVKTPQHVKITDFGLAKLLGAEEKEYHAEGGKVPIKWMALESILHRIYTHQSDVWSYGVTVWELMTFGSKPYDGIPASEISSILEKGERLPQPPICTIDVYMIMVKCWMIDADSRPKFRELIIEFSKMARDPQRYLVIQGDERMHLPSPTDSNFYRALMDEEDMDDVVDADEYLIPQQGFFSSPSTSRTPLLSSLSATSNNSTVACIDRNGLQSCPIKEDSFLQRYSSDPTGALTEDSIDDTFLPVPEYINQSVPKRPAGSVQNPVYHNQPLNPAPSRDPHYQDPHSTAVGNPEYLNTVQPTCVNSTFDSPAHWAQKGSHQISLDNPDYQQDFFPKEAKPNGIFKGSTAENAEYLRVAPQSSEFIGA

> <PDB ID(s) of Target Chain>
1IVO,1M14,1M17,1MOX,1XKK,1Z9I,2GS2,2GS6,2ITW,2ITX,2ITY,2J5E,2J5F,2J6M,2RF9,2RGP,3B2V,3BEL,3GOP,3POZ,3QWQ,3VJO,3W2O,3W2P,3W2Q,3W2R,3W2S,3W32,3W33,4G5J,4I23,4JQ7,4JQ8,4JR3,4JRV,4KRO,4LI5,4RJ4,4RJ5,4RJ6,4RJ7,4RJ8,4TKS,4UIP,4UV7,4WKQ,4WRG,4ZAU,5C8K,5C8M,5C8N,5CAL,5CAN,5CAO,5CAP,5CAQ,5CAS,5CAU,5CAV,5EDP,5EDQ,5EDR,5EM5,5EM6,5EM7,5EM8,5FED,5GNK,5HCX,5HCY,5HCZ,5HIB,5HIC,5UGB,5WB7,5WB8,5Y25,6S89,6S8A

> <UniProt (SwissProt) Recommended Name of Target Chain>
Epidermal growth factor receptor

> <UniProt (SwissProt) Entry Name of Target Chain>
EGFR_HUMAN

> <UniProt (SwissProt) Primary ID of Target Chain>
P00533

> <UniProt (SwissProt) Secondary ID(s) of Target Chain>
O00688,O00732,P06268,Q14225,Q68GS5,Q92795,Q9BZS2,Q9GZX1,Q9H2C9,Q9H3C9,Q9UMD7,Q9UMD8,Q9UMG5

> <UniProt (SwissProt) Alternative ID(s) of Target Chain>


> <UniProt (TrEMBL) Submitted Name of Target Chain>


> <UniProt (TrEMBL) Entry Name of Target Chain>


> <UniProt (TrEMBL) Primary ID of Target Chain>


> <UniProt (TrEMBL) Secondary ID(s) of Target Chain>


> <UniProt (TrEMBL) Alternative ID(s) of Target Chain>


> <training label>
8

> <i_lp_mmshare_version>
54117

> <s_epik_input>
W2NIXTFbY0hdYyhGKWMoQ2wpW2NIXWMxW05IXWMobltjSF1uMiljKGMyMylbY0hdYyhjKFtjSF0zKU9bQ0gzXSlPW0NIXTRbQ0gyXVtDSDJdTihbQ0gzXSlbQ0gyXVtDSDJdNA==

> <s_epik_cmdline>
J2VwaWtfcHl0aG9uJywgJy1waHQnLCAnMC4xJywgJy1waCcsICc3LjQnLCAnLXRuJywgJzgnLCAnLW1hJywgJzIwMCcsICctaW1hZScsICc8aW5maWxlLm1hZT4nLCAnLW9tYWUnLCAnPG91dGZpbGUubWFlPic=

> <r_lp_tautomer_probability>
1

> <r_epik_Ionization_Penalty>
  0.0231

> <r_epik_Ionization_Penalty_Charging>
  0.0226

> <r_epik_Ionization_Penalty_Neutral>
  0.0005

> <r_epik_State_Penalty>
  0.0000

> <r_epik_Charging_Adjusted_Penalty>
0.0225555000722947

> <i_epik_Tot_Q>
1

> <i_epik_Tot_abs_Q>
1

> <i_f3d_flags>
0

> <s_lp_Force_Field>
OPLS_2005

> <r_lp_Energy>
35.965171

> <b_lp_Chiralities_Consistent>
1

> <s_lp_Variant>
BindingDB_50189994_mol_1-1

> <s_i_glide_gridfile>
struct_1_site_1

> <i_i_glide_lignum>
232

> <i_i_glide_rotatable_bonds>
5

> <r_i_docking_score>
-7.55695683175427

> <r_i_glide_ligand_efficiency>
-0.260584718336354

> <r_i_glide_ligand_efficiency_sa>
-0.80059881376277

> <r_i_glide_ligand_efficiency_ln>
-1.73035148658058

> <r_i_glide_gscore>
-7.55695683175427

> <r_i_glide_lipo>
-3.10138747446053

> <r_i_glide_hbond>
-0.32

> <r_i_glide_metal>
0

> <r_i_glide_rewards>
-1.71062276881203

> <r_i_glide_evdw>
-42.5239944458008

> <r_i_glide_ecoul>
-4.57063055038452

> <r_i_glide_erotb>
0.452832715659473

> <r_i_glide_esite>
-0.06598499929346

> <r_i_glide_emodel>
-57.7439688128558

> <r_i_glide_energy>
-47.0946249961853

> <r_i_glide_einternal>
3.65390992164612

> <i_i_glide_confnum>
13

> <i_i_glide_posenum>
163

> <r_i_glide_eff_state_penalty>
0

> <IC50 (nM)>
10

> <PMID>
16806916

> <r_glide_shape_similarity>
0.862189710140228

> <s_m_subgroup_title>
505 training

> <s_m_subgroupid>
pocket_pv

> <b_m_subgroup_collapsed>
0

$$$$
BindingDB_50087068_mol_1
                    3D
 Schrodinger Suite 2021-2.
 67 70  0  0  1  0            999 V2000
   22.0741   -0.1678   53.5055 C   0  0  0  0  0  0
   23.4405   -0.0972   53.8727 C   0  0  0  0  0  0
   21.5161    0.6559   52.5010 C   0  0  0  0  0  0
   21.2681   -1.1197   54.1842 C   0  0  0  0  0  0
   20.1584    0.5210   52.1441 C   0  0  0  0  0  0
   23.9455   -0.9041   54.8323 N   0  0  0  0  0  0
   19.9021   -1.2253   53.8294 C   0  0  0  0  0  0
   24.2875    0.8532   53.2775 N   0  0  0  0  0  0
   19.5423    1.3289   51.1497 N   0  0  0  0  0  0
   19.3367   -0.4150   52.8098 C   0  0  0  0  0  0
   20.0501    1.7626   49.9812 C   0  0  0  0  0  0
   14.5277    1.3849   52.2535 N   0  0  2  0  0  0
   21.8035   -1.9055   55.1455 N   0  0  0  0  0  0
   12.5761    3.5505   52.4852 N   0  3  0  0  0  0
   23.1001   -1.7497   55.4168 C   0  0  0  0  0  0
   25.6855    0.9507   53.3439 C   0  0  0  0  0  0
   19.0323    2.4895   49.2284 C   0  0  0  0  0  0
   21.2100    1.5581   49.6151 O   0  0  0  0  0  0
   19.2855    2.9773   48.0022 C   0  0  0  0  0  0
   12.9853    2.7043   53.6502 C   0  0  0  0  0  0
   13.6227    3.5250   51.4142 C   0  0  0  0  0  0
   13.4119    1.2761   53.2113 C   0  0  0  0  0  0
   14.0451    2.0747   51.0456 C   0  0  0  0  0  0
   26.5201   -0.1935   53.3326 C   0  0  0  0  0  0
   18.0353   -0.4832   52.3375 O   0  0  0  0  0  0
   27.9265   -0.0651   53.3731 C   0  0  0  0  0  0
   15.1453    0.0959   51.9206 C   0  0  0  0  0  0
   15.8327   -0.4750   53.1727 C   0  0  0  0  0  0
   12.2386    4.9423   52.8995 C   0  0  0  0  0  0
   27.6779    2.3678   53.4291 C   0  0  0  0  0  0
   26.2751    2.2337   53.3729 C   0  0  0  0  0  0
   17.0584   -1.3485   52.9072 C   0  0  0  0  0  0
   28.5041    1.2251   53.4370 C   0  0  0  0  0  0
   28.8047   -1.3055   53.2929 C   0  0  0  0  0  0
   22.1194    1.3850   51.9868 H   0  0  0  0  0  0
   19.3169   -1.9660   54.3504 H   0  0  0  0  0  0
   23.8204    1.6281   52.8288 H   0  0  0  0  0  0
   18.5436    1.4472   51.2705 H   0  0  0  0  0  0
   23.5109   -2.3973   56.1773 H   0  0  0  0  0  0
   18.0510    2.6477   49.6522 H   0  0  0  0  0  0
   18.5236    3.5149   47.4590 H   0  0  0  0  0  0
   20.2470    2.8510   47.5242 H   0  0  0  0  0  0
   12.1567    2.6368   54.3575 H   0  0  0  0  0  0
   13.8128    3.1866   54.1734 H   0  0  0  0  0  0
   13.2420    4.0395   50.5312 H   0  0  0  0  0  0
   14.4993    4.0827   51.7494 H   0  0  0  0  0  0
   13.7164    0.7171   54.0984 H   0  0  0  0  0  0
   12.5773    0.7383   52.7578 H   0  0  0  0  0  0
   13.2132    1.5277   50.5975 H   0  0  0  0  0  0
   14.8409    2.1168   50.2985 H   0  0  0  0  0  0
   26.0841   -1.1792   53.2693 H   0  0  0  0  0  0
   14.4071   -0.6001   51.5183 H   0  0  0  0  0  0
   15.8901    0.2603   51.1414 H   0  0  0  0  0  0
   16.1856    0.3468   53.7745 H   0  0  0  0  0  0
   15.1025   -1.0084   53.7741 H   0  0  0  0  0  0
   13.1196    5.4611   53.2813 H   0  0  0  0  0  0
   11.8390    5.5118   52.0581 H   0  0  0  0  0  0
   11.4888    4.9318   53.6869 H   0  0  0  0  0  0
   28.1156    3.3554   53.4624 H   0  0  0  0  0  0
   25.6623    3.1241   53.3642 H   0  0  0  0  0  0
   17.3580   -1.8122   53.8460 H   0  0  0  0  0  0
   16.8068   -2.1453   52.2067 H   0  0  0  0  0  0
   29.5784    1.3466   53.4711 H   0  0  0  0  0  0
   29.8194   -1.0528   52.9778 H   0  0  0  0  0  0
   28.8483   -1.8066   54.2530 H   0  0  0  0  0  0
   28.3980   -2.0167   52.5757 H   0  0  0  0  0  0
   11.7212    3.1507   52.1011 H   0  0  0  0  0  0
  1  2  1  0  0  0
  1  3  2  0  0  0
  1  4  1  0  0  0
  2  6  2  0  0  0
  2  8  1  0  0  0
  3  5  1  0  0  0
  3 35  1  0  0  0
  4  7  2  0  0  0
  4 13  1  0  0  0
  5  9  1  0  0  0
  5 10  2  0  0  0
  6 15  1  0  0  0
  7 10  1  0  0  0
  7 36  1  0  0  0
  8 16  1  0  0  0
  8 37  1  0  0  0
  9 11  1  0  0  0
  9 38  1  0  0  0
 10 25  1  0  0  0
 11 17  1  0  0  0
 11 18  2  0  0  0
 12 22  1  0  0  0
 12 23  1  0  0  0
 12 27  1  0  0  0
 13 15  2  0  0  0
 14 20  1  0  0  0
 14 21  1  0  0  0
 14 29  1  0  0  0
 14 67  1  0  0  0
 15 39  1  0  0  0
 16 24  2  0  0  0
 16 31  1  0  0  0
 17 19  2  0  0  0
 17 40  1  0  0  0
 19 41  1  0  0  0
 19 42  1  0  0  0
 20 22  1  0  0  0
 20 43  1  0  0  0
 20 44  1  0  0  0
 21 23  1  0  0  0
 21 45  1  0  0  0
 21 46  1  0  0  0
 22 47  1  0  0  0
 22 48  1  0  0  0
 23 49  1  0  0  0
 23 50  1  0  0  0
 24 26  1  0  0  0
 24 51  1  0  0  0
 25 32  1  0  0  0
 26 33  2  0  0  0
 26 34  1  0  0  0
 27 28  1  0  0  0
 27 52  1  0  0  0
 27 53  1  0  0  0
 28 32  1  0  0  0
 28 54  1  0  0  0
 28 55  1  0  0  0
 29 56  1  0  0  0
 29 57  1  0  0  0
 29 58  1  0  0  0
 30 31  2  0  0  0
 30 33  1  0  0  0
 30 59  1  0  0  0
 31 60  1  0  0  0
 32 61  1  0  0  0
 32 62  1  0  0  0
 33 63  1  0  0  0
 34 64  1  0  0  0
 34 65  1  0  0  0
 34 66  1  0  0  0
M  CHG  1  14   1
M  END
> <s_m_entry_id>
306

> <s_m_entry_name>
pocket_pv.117

> <s_m_Source_Path>
/home/bortolaa/Project/GT/mario-master/docking/set505protein_struct_1_site_1_set505ligs_train

> <s_m_Source_File>
pocket_pv.maegz

> <i_m_Source_File_Index>
117

> <From>
www.bindingDB.org

> <BindingDB Reactant_set_id>
50154871

> <Ligand InChI>
InChI=1S/C26H32N6O2/c1-4-25(33)30-23-16-21-22(27-18-28-26(21)29-20-8-5-7-19(2)15-20)17-24(23)34-14-6-9-32-12-10-31(3)11-13-32/h4-5,7-8,15-18H,1,6,9-14H2,2-3H3,(H,30,33)(H,27,28,29)

> <Ligand InChI Key>
YGLXIEDANXSHCZ-UHFFFAOYSA-N

> <BindingDB MonomerID>
50087068

> <BindingDB Ligand Name>
CHEMBL31622::N-{7-[3-(4-Methyl-piperazin-1-yl)-propoxy]-4-m-tolylamino-quinazolin-6-yl}-acrylamide

> <Target Name Assigned by Curator or DataSource>
Epidermal growth factor receptor

> <Target Source Organism According to Curator or DataSource>
Homo sapiens

> <Ki (nM)>


> <Kd (nM)>


> <EC50 (nM)>


> <kon (M-1-s-1)>


> <koff (s-1)>


> <pH>


> <Temp C>


> <Curation/DataSource>
ChEMBL

> <Article DOI>
10.1021/jm990482t

> <PubChem AID>


> <Patent Number>


> <Authors>
Smaill, JB; Rewcastle, GW; Loo, JA; Greis, KD; Chan, OH; Reyner, EL; Lipka, E; Showalter, HD; Vincent, PW; Elliott, WL; Denny, WA

> <Institution>
University of Auckland

> <Link to Ligand in BindingDB>
http://www.bindingdb.org/bind/chemsearch/marvin/MolStructure.jsp?monomerid=50087068

> <Link to Ligand-Target Pair in BindingDB>
http://www.bindingdb.org/jsp/dbsearch/PrimarySearch_ki.jsp?energyterm=kJ/mole&tag=r21&monomerid=50087068&enzyme=Epidermal+growth+factor+receptor&column=ki&startPg=0&Increment=50&submit=Search

> <Ligand HET ID in PDB>


> <PDB ID(s) for Ligand-Target Complex>


> <PubChem CID>
10504176

> <PubChem SID>
103986155

> <ChEBI ID of Ligand>


> <ChEMBL ID of Ligand>
CHEMBL31622

> <DrugBank ID of Ligand>


> <IUPHAR_GRAC ID of Ligand>


> <KEGG ID of Ligand>


> <ZINC ID of Ligand>
ZINC22939590

> <Number of Protein Chains in Target (>
1

> <BindingDB Target Chain Sequence>
MRPSGTAGAALLALLAALCPASRALEEKKVCQGTSNKLTQLGTFEDHFLSLQRMFNNCEVVLGNLEITYVQRNYDLSFLKTIQEVAGYVLIALNTVERIPLENLQIIRGNMYYENSYALAVLSNYDANKTGLKELPMRNLQEILHGAVRFSNNPALCNVESIQWRDIVSSDFLSNMSMDFQNHLGSCQKCDPSCPNGSCWGAGEENCQKLTKIICAQQCSGRCRGKSPSDCCHNQCAAGCTGPRESDCLVCRKFRDEATCKDTCPPLMLYNPTTYQMDVNPEGKYSFGATCVKKCPRNYVVTDHGSCVRACGADSYEMEEDGVRKCKKCEGPCRKVCNGIGIGEFKDSLSINATNIKHFKNCTSISGDLHILPVAFRGDSFTHTPPLDPQELDILKTVKEITGFLLIQAWPENRTDLHAFENLEIIRGRTKQHGQFSLAVVSLNITSLGLRSLKEISDGDVIISGNKNLCYANTINWKKLFGTSGQKTKIISNRGENSCKATGQVCHALCSPEGCWGPEPRDCVSCRNVSRGRECVDKCNLLEGEPREFVENSECIQCHPECLPQAMNITCTGRGPDNCIQCAHYIDGPHCVKTCPAGVMGENNTLVWKYADAGHVCHLCHPNCTYGCTGPGLEGCPTNGPKIPSIATGMVGALLLLLVVALGIGLFMRRRHIVRKRTLRRLLQERELVEPLTPSGEAPNQALLRILKETEFKKIKVLGSGAFGTVYKGLWIPEGEKVKIPVAIKELREATSPKANKEILDEAYVMASVDNPHVCRLLGICLTSTVQLITQLMPFGCLLDYVREHKDNIGSQYLLNWCVQIAKGMNYLEDRRLVHRDLAARNVLVKTPQHVKITDFGLAKLLGAEEKEYHAEGGKVPIKWMALESILHRIYTHQSDVWSYGVTVWELMTFGSKPYDGIPASEISSILEKGERLPQPPICTIDVYMIMVKCWMIDADSRPKFRELIIEFSKMARDPQRYLVIQGDERMHLPSPTDSNFYRALMDEEDMDDVVDADEYLIPQQGFFSSPSTSRTPLLSSLSATSNNSTVACIDRNGLQSCPIKEDSFLQRYSSDPTGALTEDSIDDTFLPVPEYINQSVPKRPAGSVQNPVYHNQPLNPAPSRDPHYQDPHSTAVGNPEYLNTVQPTCVNSTFDSPAHWAQKGSHQISLDNPDYQQDFFPKEAKPNGIFKGSTAENAEYLRVAPQSSEFIGA

> <PDB ID(s) of Target Chain>
1IVO,1M14,1M17,1MOX,1XKK,1Z9I,2GS2,2GS6,2ITW,2ITX,2ITY,2J5E,2J5F,2J6M,2RF9,2RGP,3B2V,3BEL,3GOP,3POZ,3QWQ,3VJO,3W2O,3W2P,3W2Q,3W2R,3W2S,3W32,3W33,4G5J,4I23,4JQ7,4JQ8,4JR3,4JRV,4KRO,4LI5,4RJ4,4RJ5,4RJ6,4RJ7,4RJ8,4TKS,4UIP,4UV7,4WKQ,4WRG,4ZAU,5C8K,5C8M,5C8N,5CAL,5CAN,5CAO,5CAP,5CAQ,5CAS,5CAU,5CAV,5EDP,5EDQ,5EDR,5EM5,5EM6,5EM7,5EM8,5FED,5GNK,5HCX,5HCY,5HCZ,5HIB,5HIC,5UGB,5WB7,5WB8,5Y25,6S89,6S8A

> <UniProt (SwissProt) Recommended Name of Target Chain>
Epidermal growth factor receptor

> <UniProt (SwissProt) Entry Name of Target Chain>
EGFR_HUMAN

> <UniProt (SwissProt) Primary ID of Target Chain>
P00533

> <UniProt (SwissProt) Secondary ID(s) of Target Chain>
O00688,O00732,P06268,Q14225,Q68GS5,Q92795,Q9BZS2,Q9GZX1,Q9H2C9,Q9H3C9,Q9UMD7,Q9UMD8,Q9UMG5

> <UniProt (SwissProt) Alternative ID(s) of Target Chain>


> <UniProt (TrEMBL) Submitted Name of Target Chain>


> <UniProt (TrEMBL) Entry Name of Target Chain>


> <UniProt (TrEMBL) Primary ID of Target Chain>


> <UniProt (TrEMBL) Secondary ID(s) of Target Chain>


> <UniProt (TrEMBL) Alternative ID(s) of Target Chain>


> <training label>
7.74473

> <i_lp_mmshare_version>
54117

> <s_epik_input>
W2NIXTFbY0hdW2NIXWMoW0NIM10pW2NIXWMxW05IXWMybltjSF1uYyhjMjMpW2NIXWMoYyhbY0hdMylbTkhdQyg9TylbQ0hdPVtDSDJdKU9bQ0gyXVtDSDJdW0NIMl1ONFtDSDJdW0NIMl1OKFtDSDNdKVtDSDJdW0NIMl00

> <s_epik_cmdline>
J2VwaWtfcHl0aG9uJywgJy1waHQnLCAnMC4xJywgJy1waCcsICc3LjQnLCAnLXRuJywgJzgnLCAnLW1hJywgJzIwMCcsICctaW1hZScsICc8aW5maWxlLm1hZT4nLCAnLW9tYWUnLCAnPG91dGZpbGUubWFlPic=

> <r_lp_tautomer_probability>
0.999978000241998

> <r_epik_Ionization_Penalty>
  0.0679

> <r_epik_Ionization_Penalty_Charging>
  0.0667

> <r_epik_Ionization_Penalty_Neutral>
  0.0012

> <r_epik_State_Penalty>
  0.1387

> <r_epik_Charging_Adjusted_Penalty>
0.205374922322575

> <i_epik_Tot_Q>
1

> <i_epik_Tot_abs_Q>
1

> <i_f3d_flags>
0

> <s_lp_Force_Field>
OPLS_2005

> <r_lp_Energy>
41.118023

> <b_lp_Chiralities_Consistent>
1

> <s_lp_Variant>
BindingDB_50087068_mol_1-1

> <s_i_glide_gridfile>
struct_1_site_1

> <i_i_glide_lignum>
209

> <i_i_glide_rotatable_bonds>
10

> <r_i_docking_score>
-7.55181925924554

> <r_i_glide_ligand_efficiency>
-0.222112331154281

> <r_i_glide_ligand_efficiency_sa>
-0.719557728370854

> <r_i_glide_ligand_efficiency_ln>
-1.6684086957227

> <r_i_glide_gscore>
-7.69051925924554

> <r_i_glide_lipo>
-2.9809987472901

> <r_i_glide_hbond>
-0.32

> <r_i_glide_metal>
0

> <r_i_glide_rewards>
-1.53084106490134

> <r_i_glide_evdw>
-47.6703834533691

> <r_i_glide_ecoul>
-9.14246940612793

> <r_i_glide_erotb>
0.94516755727017

> <r_i_glide_esite>
-0.0489574207366256

> <r_i_glide_emodel>
-61.6636260778642

> <r_i_glide_energy>
-56.8128528594971

> <r_i_glide_einternal>
9.18373775482178

> <i_i_glide_confnum>
82

> <i_i_glide_posenum>
318

> <r_i_glide_eff_state_penalty>
0.1387

> <IC50 (nM)>
18

> <PMID>
10753475

> <r_glide_shape_similarity>
0.774475812911987

> <s_m_subgroup_title>
505 training

> <s_m_subgroupid>
pocket_pv

> <b_m_subgroup_collapsed>
0

$$$$
/home/bortolaa/Project/GT/mario-master/ligands/set505ligs_train.sdf:225
                    3D
 Schrodinger Suite 2021-2.
 62 66  0  0  1  0            999 V2000
   20.3296    1.5679   49.8834 C   0  0  0  0  0  0
   19.6936    2.6306   49.1192 C   0  0  0  0  0  0
   18.3523    2.7625   49.0449 C   0  0  0  0  0  0
   17.6612    3.9583   48.4139 C   0  0  0  0  0  0
   21.3606    0.9933   49.5265 O   0  0  0  0  0  0
   19.6867    1.3043   51.0499 N   0  0  0  0  0  0
   21.7983   -1.9059   55.1444 N   0  0  0  0  0  0
   23.0974   -1.7524   55.4166 C   0  0  0  0  0  0
   23.9444   -0.9095   54.8314 N   0  0  0  0  0  0
   23.4433   -0.1025   53.8723 C   0  0  0  0  0  0
   22.0784   -0.1722   53.5057 C   0  0  0  0  0  0
   21.5411    0.6381   52.4874 C   0  0  0  0  0  0
   20.1905    0.5141   52.1153 C   0  0  0  0  0  0
   19.3324   -0.3541   52.8279 C   0  0  0  0  0  0
   19.8886   -1.1895   53.8404 C   0  0  0  0  0  0
   21.2632   -1.1165   54.1835 C   0  0  0  0  0  0
   17.9961   -0.3134   52.4756 O   0  0  0  0  0  0
   15.3863   -2.1567   52.4043 O   0  0  0  0  0  0
   16.6304   -2.2104   53.1273 C   0  0  0  0  0  0
   17.0198   -0.7517   53.4162 C   0  0  2  0  0  0
   15.7135    0.0081   53.1760 C   0  0  0  0  0  0
   15.0709   -0.8032   52.0592 C   0  0  0  0  0  0
   24.2892    0.8505   53.2772 N   0  0  0  0  0  0
   25.6838    0.9530   53.3429 C   0  0  0  0  0  0
   26.5135   -0.1906   53.3353 C   0  0  0  0  0  0
   27.9158   -0.0549   53.3841 C   0  0  0  0  0  0
   28.5012    1.2281   53.4429 C   0  0  0  0  0  0
   27.6753    2.3700   53.4283 C   0  0  0  0  0  0
   26.2738    2.2364   53.3709 C   0  0  0  0  0  0
   28.7429   -1.2490   53.3693 C   0  0  0  0  0  0
   29.3721   -2.2958   53.3625 C   0  0  0  0  0  0
   16.9606    4.7327   49.4432 N   0  0  2  0  0  0
   15.7253    4.0932   49.8982 C   0  0  0  0  0  0
   15.7899    3.0778   51.0295 C   0  0  0  0  0  0
   15.2522    4.4631   51.2939 C   0  0  0  0  0  0
   20.3246    3.3633   48.6362 H   0  0  0  0  0  0
   17.6998    2.0133   49.4755 H   0  0  0  0  0  0
   18.4100    4.6001   47.9439 H   0  0  0  0  0  0
   16.9688    3.6409   47.6320 H   0  0  0  0  0  0
   18.7588    1.6891   51.1780 H   0  0  0  0  0  0
   23.5103   -2.4035   56.1719 H   0  0  0  0  0  0
   22.1682    1.3417   51.9618 H   0  0  0  0  0  0
   19.2705   -1.8875   54.3822 H   0  0  0  0  0  0
   17.4087   -2.7344   52.5758 H   0  0  0  0  0  0
   16.4942   -2.7707   54.0555 H   0  0  0  0  0  0
   17.3714   -0.6224   54.4402 H   0  0  0  0  0  0
   15.0849   -0.0463   54.0647 H   0  0  0  0  0  0
   15.8557    1.0571   52.9283 H   0  0  0  0  0  0
   13.9961   -0.6425   51.9912 H   0  0  0  0  0  0
   15.5225   -0.5559   51.0948 H   0  0  0  0  0  0
   23.8213    1.6233   52.8265 H   0  0  0  0  0  0
   26.0734   -1.1776   53.2876 H   0  0  0  0  0  0
   29.5757    1.3423   53.4882 H   0  0  0  0  0  0
   28.1092    3.3588   53.4553 H   0  0  0  0  0  0
   25.6637    3.1289   53.3556 H   0  0  0  0  0  0
   29.8795   -3.2344   53.3569 H   0  0  0  0  0  0
   16.7785    5.6953   49.1618 H   0  0  0  0  0  0
   14.9298    3.9385   49.1747 H   0  0  0  0  0  0
   15.0806    2.2514   50.9967 H   0  0  0  0  0  0
   16.7610    2.8476   51.4585 H   0  0  0  0  0  0
   15.8808    5.1327   51.8743 H   0  0  0  0  0  0
   14.1810    4.5690   51.4511 H   0  0  0  0  0  0
  1  2  1  0  0  0
  1  5  2  0  0  0
  1  6  1  0  0  0
  2  3  2  0  0  0
  2 36  1  0  0  0
  3  4  1  0  0  0
  3 37  1  0  0  0
  4 32  1  0  0  0
  4 38  1  0  0  0
  4 39  1  0  0  0
  6 13  1  0  0  0
  6 40  1  0  0  0
  7  8  1  0  0  0
  7 16  2  0  0  0
  8  9  2  0  0  0
  8 41  1  0  0  0
  9 10  1  0  0  0
 10 11  2  0  0  0
 10 23  1  0  0  0
 11 12  1  0  0  0
 11 16  1  0  0  0
 12 13  2  0  0  0
 12 42  1  0  0  0
 13 14  1  0  0  0
 14 15  2  0  0  0
 14 17  1  0  0  0
 15 16  1  0  0  0
 15 43  1  0  0  0
 17 20  1  0  0  0
 18 19  1  0  0  0
 18 22  1  0  0  0
 19 20  1  0  0  0
 19 44  1  0  0  0
 19 45  1  0  0  0
 20 21  1  0  0  0
 20 46  1  0  0  0
 21 22  1  0  0  0
 21 47  1  0  0  0
 21 48  1  0  0  0
 22 49  1  0  0  0
 22 50  1  0  0  0
 23 24  1  0  0  0
 23 51  1  0  0  0
 24 25  1  0  0  0
 24 29  2  0  0  0
 25 26  2  0  0  0
 25 52  1  0  0  0
 26 27  1  0  0  0
 26 30  1  0  0  0
 27 28  2  0  0  0
 27 53  1  0  0  0
 28 29  1  0  0  0
 28 54  1  0  0  0
 29 55  1  0  0  0
 30 31  3  0  0  0
 31 56  1  0  0  0
 32 33  1  0  0  0
 32 57  1  0  0  0
 33 34  1  0  0  0
 33 35  1  0  0  0
 33 58  1  0  0  0
 34 35  1  0  0  0
 34 59  1  0  0  0
 34 60  1  0  0  0
 35 61  1  0  0  0
 35 62  1  0  0  0
M  END
> <s_m_entry_id>
307

> <s_m_entry_name>
pocket_pv.118

> <s_m_Source_Path>
/home/bortolaa/Project/GT/mario-master/docking/set505protein_struct_1_site_1_set505ligs_train

> <s_m_Source_File>
pocket_pv.maegz

> <i_m_Source_File_Index>
118

> <From>
www.bindingDB.org

> <BindingDB Reactant_set_id>
50419133

> <Ligand InChI>
InChI=1S/C27H27N5O3/c1-2-18-5-3-6-20(13-18)31-27-22-14-24(32-26(33)7-4-11-28-19-8-9-19)25(15-23(22)29-17-30-27)35-21-10-12-34-16-21/h1,3-7,13-15,17,19,21,28H,8-12,16H2,(H,32,33)(H,29,30,31)/b7-4+/t21-/m0/s1

> <Ligand InChI Key>
IUUHKMMSPMWKTL-XBGMYJNYSA-N

> <BindingDB MonomerID>
50123159

> <BindingDB Ligand Name>
CHEMBL3622676

> <Target Name Assigned by Curator or DataSource>
Epidermal growth factor receptor

> <Target Source Organism According to Curator or DataSource>
Homo sapiens

> <Ki (nM)>


> <Kd (nM)>


> <EC50 (nM)>


> <kon (M-1-s-1)>


> <koff (s-1)>


> <pH>


> <Temp C>


> <Curation/DataSource>
ChEMBL

> <Article DOI>
10.1016/j.ejmech.2015.08.026

> <PubChem AID>


> <Patent Number>


> <Authors>
Zhang, L; Yang, Y; Zhou, H; Zheng, Q; Li, Y; Zheng, S; Zhao, S; Chen, D; Fan, C

> <Institution>
Qilu Pharmaceutical Co, Ltd

> <Link to Ligand in BindingDB>
http://www.bindingdb.org/bind/chemsearch/marvin/MolStructure.jsp?monomerid=50123159

> <Link to Ligand-Target Pair in BindingDB>
http://www.bindingdb.org/jsp/dbsearch/PrimarySearch_ki.jsp?energyterm=kJ/mole&tag=r21&monomerid=50123159&enzyme=Epidermal+growth+factor+receptor&column=ki&startPg=0&Increment=50&submit=Search

> <Ligand HET ID in PDB>


> <PDB ID(s) for Ligand-Target Complex>


> <PubChem CID>
122191958

> <PubChem SID>
321901892

> <ChEBI ID of Ligand>


> <ChEMBL ID of Ligand>
CHEMBL3622676

> <DrugBank ID of Ligand>


> <IUPHAR_GRAC ID of Ligand>


> <KEGG ID of Ligand>


> <ZINC ID of Ligand>


> <Number of Protein Chains in Target (>
1

> <BindingDB Target Chain Sequence>
MRPSGTAGAALLALLAALCPASRALEEKKVCQGTSNKLTQLGTFEDHFLSLQRMFNNCEVVLGNLEITYVQRNYDLSFLKTIQEVAGYVLIALNTVERIPLENLQIIRGNMYYENSYALAVLSNYDANKTGLKELPMRNLQEILHGAVRFSNNPALCNVESIQWRDIVSSDFLSNMSMDFQNHLGSCQKCDPSCPNGSCWGAGEENCQKLTKIICAQQCSGRCRGKSPSDCCHNQCAAGCTGPRESDCLVCRKFRDEATCKDTCPPLMLYNPTTYQMDVNPEGKYSFGATCVKKCPRNYVVTDHGSCVRACGADSYEMEEDGVRKCKKCEGPCRKVCNGIGIGEFKDSLSINATNIKHFKNCTSISGDLHILPVAFRGDSFTHTPPLDPQELDILKTVKEITGFLLIQAWPENRTDLHAFENLEIIRGRTKQHGQFSLAVVSLNITSLGLRSLKEISDGDVIISGNKNLCYANTINWKKLFGTSGQKTKIISNRGENSCKATGQVCHALCSPEGCWGPEPRDCVSCRNVSRGRECVDKCNLLEGEPREFVENSECIQCHPECLPQAMNITCTGRGPDNCIQCAHYIDGPHCVKTCPAGVMGENNTLVWKYADAGHVCHLCHPNCTYGCTGPGLEGCPTNGPKIPSIATGMVGALLLLLVVALGIGLFMRRRHIVRKRTLRRLLQERELVEPLTPSGEAPNQALLRILKETEFKKIKVLGSGAFGTVYKGLWIPEGEKVKIPVAIKELREATSPKANKEILDEAYVMASVDNPHVCRLLGICLTSTVQLITQLMPFGCLLDYVREHKDNIGSQYLLNWCVQIAKGMNYLEDRRLVHRDLAARNVLVKTPQHVKITDFGLAKLLGAEEKEYHAEGGKVPIKWMALESILHRIYTHQSDVWSYGVTVWELMTFGSKPYDGIPASEISSILEKGERLPQPPICTIDVYMIMVKCWMIDADSRPKFRELIIEFSKMARDPQRYLVIQGDERMHLPSPTDSNFYRALMDEEDMDDVVDADEYLIPQQGFFSSPSTSRTPLLSSLSATSNNSTVACIDRNGLQSCPIKEDSFLQRYSSDPTGALTEDSIDDTFLPVPEYINQSVPKRPAGSVQNPVYHNQPLNPAPSRDPHYQDPHSTAVGNPEYLNTVQPTCVNSTFDSPAHWAQKGSHQISLDNPDYQQDFFPKEAKPNGIFKGSTAENAEYLRVAPQSSEFIGA

> <PDB ID(s) of Target Chain>
1IVO,1M14,1M17,1MOX,1XKK,1Z9I,2GS2,2GS6,2ITW,2ITX,2ITY,2J5E,2J5F,2J6M,2RF9,2RGP,3B2V,3BEL,3GOP,3POZ,3QWQ,3VJO,3W2O,3W2P,3W2Q,3W2R,3W2S,3W32,3W33,4G5J,4I23,4JQ7,4JQ8,4JR3,4JRV,4KRO,4LI5,4RJ4,4RJ5,4RJ6,4RJ7,4RJ8,4TKS,4UIP,4UV7,4WKQ,4WRG,4ZAU,5C8K,5C8M,5C8N,5CAL,5CAN,5CAO,5CAP,5CAQ,5CAS,5CAU,5CAV,5EDP,5EDQ,5EDR,5EM5,5EM6,5EM7,5EM8,5FED,5GNK,5HCX,5HCY,5HCZ,5HIB,5HIC,5UGB,5WB7,5WB8,5Y25,6S89,6S8A

> <UniProt (SwissProt) Recommended Name of Target Chain>
Epidermal growth factor receptor

> <UniProt (SwissProt) Entry Name of Target Chain>
EGFR_HUMAN

> <UniProt (SwissProt) Primary ID of Target Chain>
P00533

> <UniProt (SwissProt) Secondary ID(s) of Target Chain>
O00688,O00732,P06268,Q14225,Q68GS5,Q92795,Q9BZS2,Q9GZX1,Q9H2C9,Q9H3C9,Q9UMD7,Q9UMD8,Q9UMG5

> <UniProt (SwissProt) Alternative ID(s) of Target Chain>


> <UniProt (TrEMBL) Submitted Name of Target Chain>


> <UniProt (TrEMBL) Entry Name of Target Chain>


> <UniProt (TrEMBL) Primary ID of Target Chain>


> <UniProt (TrEMBL) Secondary ID(s) of Target Chain>


> <UniProt (TrEMBL) Alternative ID(s) of Target Chain>


> <training label>
8.25181

> <i_lp_mmshare_version>
54117

> <s_epik_input>
W0NIMl0xW0NIMl1bQ0hdMVtOSF1bQ0gyXVxbQ0hdPVtDSF1cQyg9TylbTkhdYyhbY0hdMiljKE9bQ0BASF0zW0NIMl1PW0NIMl1bQ0gyXTMpW2NIXWMoYzI0KW5bY0hdbmM0W05IXWM1W2NIXWMoQyNbQ0hdKVtjSF1bY0hdW2NIXTU=

> <s_epik_cmdline>
J2VwaWtfcHl0aG9uJywgJy1waHQnLCAnMC4xJywgJy1waCcsICc3LjQnLCAnLXRuJywgJzgnLCAnLW1hJywgJzIwMCcsICctaW1hZScsICc8aW5maWxlLm1hZT4nLCAnLW9tYWUnLCAnPG91dGZpbGUubWFlPic=

> <r_lp_tautomer_probability>
0.999978000241998

> <r_epik_Ionization_Penalty>
  0.2169

> <r_epik_Ionization_Penalty_Charging>
  0.0000

> <r_epik_Ionization_Penalty_Neutral>
  0.2169

> <r_epik_State_Penalty>
  0.2032

> <r_epik_Charging_Adjusted_Penalty>
0.203205070170935

> <i_epik_Tot_Q>
0

> <i_epik_Tot_abs_Q>
0

> <i_f3d_flags>
0

> <s_lp_Force_Field>
OPLS_2005

> <r_lp_Energy>
42.503865

> <b_lp_Chiralities_Consistent>
1

> <s_lp_Variant>
/home/bortolaa/Project/GT/mario-master/ligands/set505ligs_train.sdf:225-1

> <s_i_glide_gridfile>
struct_1_site_1

> <i_i_glide_lignum>
251

> <i_i_glide_rotatable_bonds>
11

> <r_i_docking_score>
-7.54264173811812

> <r_i_glide_ligand_efficiency>
-0.215504049660518

> <r_i_glide_ligand_efficiency_sa>
-0.704928035718307

> <r_i_glide_ligand_efficiency_ln>
-1.65577726143104

> <r_i_glide_gscore>
-7.74584173811812

> <r_i_glide_lipo>
-3.22523479005657

> <r_i_glide_hbond>
-0.351041276644373

> <r_i_glide_metal>
0

> <r_i_glide_rewards>
-1.51892098850615

> <r_i_glide_evdw>
-49.8811264038086

> <r_i_glide_ecoul>
-7.15174579620361

> <r_i_glide_erotb>
0.916173506709951

> <r_i_glide_esite>
0

> <r_i_glide_emodel>
-57.8394069166033

> <r_i_glide_energy>
-57.0328722000122

> <r_i_glide_einternal>
15.3005247116089

> <i_i_glide_confnum>
666

> <i_i_glide_posenum>
58

> <r_i_glide_eff_state_penalty>
0.2032

> <IC50 (nM)>
5.6

> <PMID>
26310890

> <r_glide_shape_similarity>
0.777592837810516

> <s_m_subgroup_title>
505 training

> <s_m_subgroupid>
pocket_pv

> <b_m_subgroup_collapsed>
0

$$$$
4-Anilinoquinazoline
                    3D
 Schrodinger Suite 2021-2.
 55 58  0  0  1  0            999 V2000
   23.3773   -0.1656   53.7835 C   0  0  0  0  0  0
   23.0266   -1.7297   55.3875 C   0  0  0  0  0  0
   21.1816   -1.0830   54.1520 C   0  0  0  0  0  0
   22.0075   -0.1718   53.4508 C   0  0  0  0  0  0
   21.4903    0.6515   52.4222 C   0  0  0  0  0  0
   20.1354    0.5574   52.0500 C   0  0  0  0  0  0
   19.2938   -0.3453   52.7319 C   0  0  0  0  0  0
   19.8168   -1.1599   53.7780 C   0  0  0  0  0  0
   23.8886   -0.9235   54.7732 N   0  0  0  0  0  0
   21.7170   -1.8679   55.1237 N   0  0  0  0  0  0
   25.5845    0.8269   53.1555 C   0  0  0  0  0  0
   27.2917    2.5075   53.4617 C   0  0  0  0  0  0
   25.9686    2.1783   53.1750 C   0  0  0  0  0  0
   26.5533   -0.2084   53.2934 C   0  0  0  0  0  0
   28.1994    1.4893   53.7464 C   0  0  0  0  0  0
   25.0423    3.1571   53.0005 F   0  0  0  0  0  0
   24.2266    0.6106   52.9989 N   0  0  0  0  0  0
   23.7489    1.4026   52.5940 H   0  0  0  0  0  0
   18.0176   -0.4143   52.2244 O   0  0  0  0  0  0
   19.5682    1.2997   51.0278 O   0  0  0  0  0  0
   20.4030    1.7447   49.9663 C   0  0  0  0  0  0
   16.9323   -0.7724   53.0553 C   0  0  0  0  0  0
   15.6834   -0.7676   52.1410 C   0  0  1  0  0  0
   14.4338   -1.3688   52.8261 C   0  0  0  0  0  0
   13.7452   -0.3649   53.7749 C   0  0  0  0  0  0
   14.5071    1.5505   52.4486 C   0  0  0  0  0  0
   15.3416    0.6183   51.5249 C   0  0  0  0  0  0
   13.3226    0.8577   53.0351 N   0  3  2  0  0  0
   12.4666    1.7713   53.8474 C   0  0  0  0  0  0
   27.8901    0.1265   53.5822 C   0  0  0  0  0  0
   26.2167   -1.5175   53.1801 F   0  0  0  0  0  0
   29.5686    1.9920   54.5750 Cl  0  0  0  0  0  0
   23.4297   -2.3537   56.1713 H   0  0  0  0  0  0
   22.1318    1.3417   51.8911 H   0  0  0  0  0  0
   19.1770   -1.8684   54.2926 H   0  0  0  0  0  0
   27.5659    3.5347   53.5889 H   0  0  0  0  0  0
   19.7971    2.1075   49.1352 H   0  0  0  0  0  0
   21.0341    2.5689   50.2962 H   0  0  0  0  0  0
   21.0360    0.9429   49.5770 H   0  0  0  0  0  0
   16.8182   -0.0658   53.8698 H   0  0  0  0  0  0
   17.0841   -1.7668   53.4729 H   0  0  0  0  0  0
   15.9336   -1.4326   51.3075 H   0  0  0  0  0  0
   14.7103   -2.2791   53.3631 H   0  0  0  0  0  0
   13.7176   -1.6837   52.0659 H   0  0  0  0  0  0
   14.4207   -0.0647   54.5749 H   0  0  0  0  0  0
   12.8826   -0.8354   54.2399 H   0  0  0  0  0  0
   15.0887    1.9343   53.2852 H   0  0  0  0  0  0
   14.1702    2.4180   51.8724 H   0  0  0  0  0  0
   14.7587    0.4610   50.6201 H   0  0  0  0  0  0
   16.2518    1.1292   51.2018 H   0  0  0  0  0  0
   13.0265    2.1675   54.6957 H   0  0  0  0  0  0
   12.1271    2.6075   53.2356 H   0  0  0  0  0  0
   11.5840    1.2440   54.2134 H   0  0  0  0  0  0
   28.6113   -0.6435   53.8152 H   0  0  0  0  0  0
   12.7516    0.5400   52.2554 H   0  0  0  0  0  0
  1  4  2  0  0  0
  1  9  1  0  0  0
  1 17  1  0  0  0
  2  9  2  0  0  0
  2 10  1  0  0  0
  2 33  1  0  0  0
  3  4  1  0  0  0
  3  8  1  0  0  0
  3 10  2  0  0  0
  4  5  1  0  0  0
  5  6  2  0  0  0
  5 34  1  0  0  0
  6  7  1  0  0  0
  6 20  1  0  0  0
  7  8  2  0  0  0
  7 19  1  0  0  0
  8 35  1  0  0  0
 11 13  2  0  0  0
 11 14  1  0  0  0
 11 17  1  0  0  0
 12 13  1  0  0  0
 12 15  2  0  0  0
 12 36  1  0  0  0
 13 16  1  0  0  0
 14 30  2  0  0  0
 14 31  1  0  0  0
 15 30  1  0  0  0
 15 32  1  0  0  0
 17 18  1  0  0  0
 19 22  1  0  0  0
 20 21  1  0  0  0
 21 37  1  0  0  0
 21 38  1  0  0  0
 21 39  1  0  0  0
 22 23  1  0  0  0
 22 40  1  0  0  0
 22 41  1  0  0  0
 23 24  1  0  0  0
 23 27  1  0  0  0
 23 42  1  0  0  0
 24 25  1  0  0  0
 24 43  1  0  0  0
 24 44  1  0  0  0
 25 28  1  0  0  0
 25 45  1  0  0  0
 25 46  1  0  0  0
 26 27  1  0  0  0
 26 28  1  0  0  0
 26 47  1  0  0  0
 26 48  1  0  0  0
 27 49  1  0  0  0
 27 50  1  0  0  0
 28 29  1  0  0  0
 28 55  1  0  0  0
 29 51  1  0  0  0
 29 52  1  0  0  0
 29 53  1  0  0  0
 30 54  1  0  0  0
M  CHG  1  28   1
M  END
> <s_m_entry_id>
308

> <s_m_entry_name>
pocket_pv.119

> <s_m_Source_Path>
/home/bortolaa/Project/GT/mario-master/docking/set505protein_struct_1_site_1_set505ligs_train

> <s_m_Source_File>
pocket_pv.maegz

> <i_m_Source_File_Index>
119

> <From>
www.bindingDB.org

> <BindingDB Reactant_set_id>
7085

> <Ligand InChI>
InChI=1S/C22H23ClF2N4O2/c1-29-5-3-13(4-6-29)11-31-20-10-18-15(9-19(20)30-2)22(27-12-26-18)28-21-16(24)7-14(23)8-17(21)25/h7-10,12-13H,3-6,11H2,1-2H3,(H,26,27,28)

> <Ligand InChI Key>
KQEHWOWUWGAOSR-UHFFFAOYSA-N

> <BindingDB MonomerID>
4672

> <BindingDB Ligand Name>
4-Anilinoquinazoline 19::N-(4-Chloro-2,6-difluorophenyl)-6-methoxy-7-[(1-methylpiperidin-4-yl)methoxy]quinazolin-4-amine

> <Target Name Assigned by Curator or DataSource>
Epidermal growth factor receptor

> <Target Source Organism According to Curator or DataSource>
Homo sapiens

> <Ki (nM)>


> <Kd (nM)>


> <EC50 (nM)>


> <kon (M-1-s-1)>


> <koff (s-1)>


> <pH>


> <Curation/DataSource>
Curated from the literature by BindingDB

> <Article DOI>
10.1021/jm011022e

> <PubChem AID>


> <Patent Number>


> <Authors>
Hennequin, LF; Stokes, ES; Thomas, AP; Johnstone, C; Ple, PA; Ogilvie, DJ; Dukes, M; Wedge, SR; Kendrew, J; Curwen, JO

> <Institution>
AstraZeneca

> <Link to Ligand in BindingDB>
http://www.bindingdb.org/bind/chemsearch/marvin/MolStructure.jsp?monomerid=4672

> <Link to Ligand-Target Pair in BindingDB>
http://www.bindingdb.org/jsp/dbsearch/PrimarySearch_ki.jsp?energyterm=kJ/mole&tag=r21&monomerid=4672&enzyme=Epidermal+growth+factor+receptor&column=ki&startPg=0&Increment=50&submit=Search

> <Ligand HET ID in PDB>


> <PDB ID(s) for Ligand-Target Complex>


> <PubChem CID>
5329045

> <PubChem SID>
8034329

> <ChEBI ID of Ligand>


> <ChEMBL ID of Ligand>


> <DrugBank ID of Ligand>


> <IUPHAR_GRAC ID of Ligand>


> <KEGG ID of Ligand>


> <ZINC ID of Ligand>
ZINC13472791

> <Number of Protein Chains in Target (>
1

> <BindingDB Target Chain Sequence>
MRPSGTAGAALLALLAALCPASRALEEKKVCQGTSNKLTQLGTFEDHFLSLQRMFNNCEVVLGNLEITYVQRNYDLSFLKTIQEVAGYVLIALNTVERIPLENLQIIRGNMYYENSYALAVLSNYDANKTGLKELPMRNLQEILHGAVRFSNNPALCNVESIQWRDIVSSDFLSNMSMDFQNHLGSCQKCDPSCPNGSCWGAGEENCQKLTKIICAQQCSGRCRGKSPSDCCHNQCAAGCTGPRESDCLVCRKFRDEATCKDTCPPLMLYNPTTYQMDVNPEGKYSFGATCVKKCPRNYVVTDHGSCVRACGADSYEMEEDGVRKCKKCEGPCRKVCNGIGIGEFKDSLSINATNIKHFKNCTSISGDLHILPVAFRGDSFTHTPPLDPQELDILKTVKEITGFLLIQAWPENRTDLHAFENLEIIRGRTKQHGQFSLAVVSLNITSLGLRSLKEISDGDVIISGNKNLCYANTINWKKLFGTSGQKTKIISNRGENSCKATGQVCHALCSPEGCWGPEPRDCVSCRNVSRGRECVDKCNLLEGEPREFVENSECIQCHPECLPQAMNITCTGRGPDNCIQCAHYIDGPHCVKTCPAGVMGENNTLVWKYADAGHVCHLCHPNCTYGCTGPGLEGCPTNGPKIPSIATGMVGALLLLLVVALGIGLFMRRRHIVRKRTLRRLLQERELVEPLTPSGEAPNQALLRILKETEFKKIKVLGSGAFGTVYKGLWIPEGEKVKIPVAIKELREATSPKANKEILDEAYVMASVDNPHVCRLLGICLTSTVQLITQLMPFGCLLDYVREHKDNIGSQYLLNWCVQIAKGMNYLEDRRLVHRDLAARNVLVKTPQHVKITDFGLAKLLGAEEKEYHAEGGKVPIKWMALESILHRIYTHQSDVWSYGVTVWELMTFGSKPYDGIPASEISSILEKGERLPQPPICTIDVYMIMVKCWMIDADSRPKFRELIIEFSKMARDPQRYLVIQGDERMHLPSPTDSNFYRALMDEEDMDDVVDADEYLIPQQGFFSSPSTSRTPLLSSLSATSNNSTVACIDRNGLQSCPIKEDSFLQRYSSDPTGALTEDSIDDTFLPVPEYINQSVPKRPAGSVQNPVYHNQPLNPAPSRDPHYQDPHSTAVGNPEYLNTVQPTCVNSTFDSPAHWAQKGSHQISLDNPDYQQDFFPKEAKPNGIFKGSTAENAEYLRVAPQSSEFIGA

> <PDB ID(s) of Target Chain>
1IVO,1M14,1M17,1MOX,1XKK,1Z9I,2GS2,2GS6,2ITW,2ITX,2ITY,2J5E,2J5F,2J6M,2RF9,2RGP,3B2V,3BEL,3GOP,3POZ,3QWQ,3VJO,3W2O,3W2P,3W2Q,3W2R,3W2S,3W32,3W33,4G5J,4I23,4JQ7,4JQ8,4JR3,4JRV,4KRO,4LI5,4RJ4,4RJ5,4RJ6,4RJ7,4RJ8,4TKS,4UIP,4UV7,4WKQ,4WRG,4ZAU,5C8K,5C8M,5C8N,5CAL,5CAN,5CAO,5CAP,5CAQ,5CAS,5CAU,5CAV,5EDP,5EDQ,5EDR,5EM5,5EM6,5EM7,5EM8,5FED,5GNK,5HCX,5HCY,5HCZ,5HIB,5HIC,5UGB,5WB7,5WB8,5Y25,6S89,6S8A

> <UniProt (SwissProt) Recommended Name of Target Chain>
Epidermal growth factor receptor

> <UniProt (SwissProt) Entry Name of Target Chain>
EGFR_HUMAN

> <UniProt (SwissProt) Primary ID of Target Chain>
P00533

> <UniProt (SwissProt) Secondary ID(s) of Target Chain>
O00688,O00732,P06268,Q14225,Q68GS5,Q92795,Q9BZS2,Q9GZX1,Q9H2C9,Q9H3C9,Q9UMD7,Q9UMD8,Q9UMG5

> <UniProt (SwissProt) Alternative ID(s) of Target Chain>


> <UniProt (TrEMBL) Submitted Name of Target Chain>


> <UniProt (TrEMBL) Entry Name of Target Chain>


> <UniProt (TrEMBL) Primary ID of Target Chain>


> <UniProt (TrEMBL) Secondary ID(s) of Target Chain>


> <UniProt (TrEMBL) Alternative ID(s) of Target Chain>


> <training label>
6.34679

> <i_lp_mmshare_version>
54117

> <s_epik_input>
RmMxW2NIXWMoQ2wpW2NIXWMoRiljMVtOSF1jKG5bY0hdbjIpYyhjMjMpW2NIXWMoT1tDSDNdKWMoW2NIXTMpT1tDSDJdW0NIXTRbQ0gyXVtDSDJdTihbQ0gzXSlbQ0gyXVtDSDJdNA==

> <s_epik_cmdline>
J2VwaWtfcHl0aG9uJywgJy1waHQnLCAnMC4xJywgJy1waCcsICc3LjQnLCAnLXRuJywgJzgnLCAnLW1hJywgJzIwMCcsICctaW1hZScsICc8aW5maWxlLm1hZT4nLCAnLW9tYWUnLCAnPG91dGZpbGUubWFlPic=

> <r_lp_tautomer_probability>
1

> <r_epik_Ionization_Penalty>
  0.0048

> <r_epik_Ionization_Penalty_Charging>
  0.0039

> <r_epik_Ionization_Penalty_Neutral>
  0.0009

> <r_epik_State_Penalty>
  0.0000

> <r_epik_Charging_Adjusted_Penalty>
0.0038691425947202

> <i_epik_Tot_Q>
1

> <i_epik_Tot_abs_Q>
1

> <i_f3d_flags>
0

> <s_lp_Force_Field>
OPLS_2005

> <r_lp_Energy>
33.267771

> <b_lp_Chiralities_Consistent>
1

> <s_lp_Variant>
4-Anilinoquinazoline-2

> <s_i_glide_gridfile>
struct_1_site_1

> <i_i_glide_lignum>
109

> <i_i_glide_rotatable_bonds>
6

> <r_i_docking_score>
-7.53336236236825

> <r_i_glide_ligand_efficiency>
-0.243011689108653

> <r_i_glide_ligand_efficiency_sa>
-0.763392217597049

> <r_i_glide_ligand_efficiency_ln>
-1.69900408254403

> <r_i_glide_gscore>
-7.53336236236825

> <r_i_glide_lipo>
-2.81528480700909

> <r_i_glide_hbond>
-0.32

> <r_i_glide_metal>
0

> <r_i_glide_rewards>
-1.94694794825926

> <r_i_glide_evdw>
-40.8531761169434

> <r_i_glide_ecoul>
-5.37213516235352

> <r_i_glide_erotb>
0.495147402289401

> <r_i_glide_esite>
-0.097797929189107

> <r_i_glide_emodel>
-49.5363993301242

> <r_i_glide_energy>
-46.2253112792969

> <r_i_glide_einternal>
1.84602475166321

> <i_i_glide_confnum>
110

> <i_i_glide_posenum>
383

> <r_i_glide_eff_state_penalty>
0

> <IC50 (nM)>
450

> <PMID>
11881999

> <Temp C>
25

> <r_glide_shape_similarity>
0.795685827732086

> <s_m_subgroup_title>
505 training

> <s_m_subgroupid>
pocket_pv

> <b_m_subgroup_collapsed>
0

$$$$
BindingDB_50370944_mol_1
                    3D
 Schrodinger Suite 2021-2.
 36 38  0  0  1  0            999 V2000
   17.1157   -1.1347   53.2361 C   0  0  0  0  0  0
   18.0225   -0.3914   52.4557 O   0  0  0  0  0  0
   19.3439   -0.3793   52.8367 C   0  0  0  0  0  0
   19.9100   -1.2028   53.8381 C   0  0  0  0  0  0
   21.2723   -1.1073   54.1778 C   0  0  0  0  0  0
   21.8021   -1.8893   55.1354 N   0  0  0  0  0  0
   23.0916   -1.7313   55.4084 C   0  0  0  0  0  0
   23.9357   -0.8945   54.8237 N   0  0  0  0  0  0
   23.4371   -0.0961   53.8676 C   0  0  0  0  0  0
   24.2884    0.8476   53.2778 N   0  0  0  0  0  0
   25.6800    0.9442   53.3411 C   0  0  0  0  0  0
   26.4952   -0.2023   53.3379 C   0  0  0  0  0  0
   27.8866   -0.0904   53.3941 C   0  0  0  0  0  0
   28.4650    1.1787   53.4588 C   0  0  0  0  0  0
   29.8000    1.2717   53.5620 F   0  0  0  0  0  0
   27.6702    2.3347   53.4254 C   0  0  0  0  0  0
   26.2740    2.2183   53.3656 C   0  0  0  0  0  0
   22.0751   -0.1665   53.4993 C   0  0  0  0  0  0
   21.5199    0.6426   52.4911 C   0  0  0  0  0  0
   20.1630    0.5232   52.1438 C   0  0  0  0  0  0
   19.5799    1.2706   51.1519 O   0  0  0  0  0  0
   20.3919    1.6700   50.0602 C   0  0  0  0  0  0
   16.0971   -0.9614   52.8844 H   0  0  0  0  0  0
   17.3160   -2.2053   53.1511 H   0  0  0  0  0  0
   17.1591   -0.8402   54.2859 H   0  0  0  0  0  0
   19.2999   -1.9056   54.3845 H   0  0  0  0  0  0
   23.4977   -2.3755   56.1736 H   0  0  0  0  0  0
   23.8246    1.6202   52.8379 H   0  0  0  0  0  0
   26.0551   -1.1872   53.2916 H   0  0  0  0  0  0
   28.5047   -0.9774   53.4047 H   0  0  0  0  0  0
   28.1295    3.3131   53.4577 H   0  0  0  0  0  0
   25.6698    3.1145   53.3503 H   0  0  0  0  0  0
   22.1366    1.3559   51.9681 H   0  0  0  0  0  0
   19.7521    1.9525   49.2248 H   0  0  0  0  0  0
   21.0386    0.8599   49.7173 H   0  0  0  0  0  0
   21.0040    2.5352   50.3272 H   0  0  0  0  0  0
  1  2  1  0  0  0
  1 23  1  0  0  0
  1 24  1  0  0  0
  1 25  1  0  0  0
  2  3  1  0  0  0
  3  4  1  0  0  0
  3 20  2  0  0  0
  4  5  2  0  0  0
  4 26  1  0  0  0
  5  6  1  0  0  0
  5 18  1  0  0  0
  6  7  2  0  0  0
  7  8  1  0  0  0
  7 27  1  0  0  0
  8  9  2  0  0  0
  9 10  1  0  0  0
  9 18  1  0  0  0
 10 11  1  0  0  0
 10 28  1  0  0  0
 11 12  2  0  0  0
 11 17  1  0  0  0
 12 13  1  0  0  0
 12 29  1  0  0  0
 13 14  2  0  0  0
 13 30  1  0  0  0
 14 15  1  0  0  0
 14 16  1  0  0  0
 16 17  2  0  0  0
 16 31  1  0  0  0
 17 32  1  0  0  0
 18 19  2  0  0  0
 19 20  1  0  0  0
 19 33  1  0  0  0
 20 21  1  0  0  0
 21 22  1  0  0  0
 22 34  1  0  0  0
 22 35  1  0  0  0
 22 36  1  0  0  0
M  END
> <s_m_entry_id>
309

> <s_m_entry_name>
pocket_pv.120

> <s_m_Source_Path>
/home/bortolaa/Project/GT/mario-master/docking/set505protein_struct_1_site_1_set505ligs_train

> <s_m_Source_File>
pocket_pv.maegz

> <i_m_Source_File_Index>
120

> <From>
www.bindingDB.org

> <BindingDB Reactant_set_id>
50844867

> <Ligand InChI>
InChI=1S/C16H14FN3O2/c1-21-14-7-12-13(8-15(14)22-2)18-9-19-16(12)20-11-5-3-10(17)4-6-11/h3-9H,1-2H3,(H,18,19,20)

> <Ligand InChI Key>
GOOMUHBHUSAARV-UHFFFAOYSA-N

> <BindingDB MonomerID>
50370944

> <BindingDB Ligand Name>
CHEMBL1203934

> <Target Name Assigned by Curator or DataSource>
Epidermal growth factor receptor

> <Target Source Organism According to Curator or DataSource>
Homo sapiens

> <Ki (nM)>


> <Kd (nM)>


> <EC50 (nM)>


> <kon (M-1-s-1)>


> <koff (s-1)>


> <pH>


> <Temp C>


> <Curation/DataSource>
ChEMBL

> <Article DOI>
10.1021/jm050607w

> <PubChem AID>


> <Patent Number>


> <Authors>
VanBrocklin, HF; Lim, JK; Coffing, SL; Hom, DL; Negash, K; Ono, MY; Gilmore, JL; Bryant, I; Riese, DJ

> <Institution>
Lawrence Berkeley National Laboratory

> <Link to Ligand in BindingDB>
http://www.bindingdb.org/bind/chemsearch/marvin/MolStructure.jsp?monomerid=50370944

> <Link to Ligand-Target Pair in BindingDB>
http://www.bindingdb.org/jsp/dbsearch/PrimarySearch_ki.jsp?energyterm=kJ/mole&tag=r21&monomerid=50370944&enzyme=Epidermal+growth+factor+receptor&column=ki&startPg=0&Increment=50&submit=Search

> <Ligand HET ID in PDB>


> <PDB ID(s) for Ligand-Target Complex>


> <PubChem CID>
1475063

> <PubChem SID>
160850045

> <ChEBI ID of Ligand>


> <ChEMBL ID of Ligand>
CHEMBL1203934

> <DrugBank ID of Ligand>


> <IUPHAR_GRAC ID of Ligand>


> <KEGG ID of Ligand>


> <ZINC ID of Ligand>
ZINC01387047

> <Number of Protein Chains in Target (>
1

> <BindingDB Target Chain Sequence>
MRPSGTAGAALLALLAALCPASRALEEKKVCQGTSNKLTQLGTFEDHFLSLQRMFNNCEVVLGNLEITYVQRNYDLSFLKTIQEVAGYVLIALNTVERIPLENLQIIRGNMYYENSYALAVLSNYDANKTGLKELPMRNLQEILHGAVRFSNNPALCNVESIQWRDIVSSDFLSNMSMDFQNHLGSCQKCDPSCPNGSCWGAGEENCQKLTKIICAQQCSGRCRGKSPSDCCHNQCAAGCTGPRESDCLVCRKFRDEATCKDTCPPLMLYNPTTYQMDVNPEGKYSFGATCVKKCPRNYVVTDHGSCVRACGADSYEMEEDGVRKCKKCEGPCRKVCNGIGIGEFKDSLSINATNIKHFKNCTSISGDLHILPVAFRGDSFTHTPPLDPQELDILKTVKEITGFLLIQAWPENRTDLHAFENLEIIRGRTKQHGQFSLAVVSLNITSLGLRSLKEISDGDVIISGNKNLCYANTINWKKLFGTSGQKTKIISNRGENSCKATGQVCHALCSPEGCWGPEPRDCVSCRNVSRGRECVDKCNLLEGEPREFVENSECIQCHPECLPQAMNITCTGRGPDNCIQCAHYIDGPHCVKTCPAGVMGENNTLVWKYADAGHVCHLCHPNCTYGCTGPGLEGCPTNGPKIPSIATGMVGALLLLLVVALGIGLFMRRRHIVRKRTLRRLLQERELVEPLTPSGEAPNQALLRILKETEFKKIKVLGSGAFGTVYKGLWIPEGEKVKIPVAIKELREATSPKANKEILDEAYVMASVDNPHVCRLLGICLTSTVQLITQLMPFGCLLDYVREHKDNIGSQYLLNWCVQIAKGMNYLEDRRLVHRDLAARNVLVKTPQHVKITDFGLAKLLGAEEKEYHAEGGKVPIKWMALESILHRIYTHQSDVWSYGVTVWELMTFGSKPYDGIPASEISSILEKGERLPQPPICTIDVYMIMVKCWMIDADSRPKFRELIIEFSKMARDPQRYLVIQGDERMHLPSPTDSNFYRALMDEEDMDDVVDADEYLIPQQGFFSSPSTSRTPLLSSLSATSNNSTVACIDRNGLQSCPIKEDSFLQRYSSDPTGALTEDSIDDTFLPVPEYINQSVPKRPAGSVQNPVYHNQPLNPAPSRDPHYQDPHSTAVGNPEYLNTVQPTCVNSTFDSPAHWAQKGSHQISLDNPDYQQDFFPKEAKPNGIFKGSTAENAEYLRVAPQSSEFIGA

> <PDB ID(s) of Target Chain>
1IVO,1M14,1M17,1MOX,1XKK,1Z9I,2GS2,2GS6,2ITW,2ITX,2ITY,2J5E,2J5F,2J6M,2RF9,2RGP,3B2V,3BEL,3GOP,3POZ,3QWQ,3VJO,3W2O,3W2P,3W2Q,3W2R,3W2S,3W32,3W33,4G5J,4I23,4JQ7,4JQ8,4JR3,4JRV,4KRO,4LI5,4RJ4,4RJ5,4RJ6,4RJ7,4RJ8,4TKS,4UIP,4UV7,4WKQ,4WRG,4ZAU,5C8K,5C8M,5C8N,5CAL,5CAN,5CAO,5CAP,5CAQ,5CAS,5CAU,5CAV,5EDP,5EDQ,5EDR,5EM5,5EM6,5EM7,5EM8,5FED,5GNK,5HCX,5HCY,5HCZ,5HIB,5HIC,5UGB,5WB7,5WB8,5Y25,6S89,6S8A

> <UniProt (SwissProt) Recommended Name of Target Chain>
Epidermal growth factor receptor

> <UniProt (SwissProt) Entry Name of Target Chain>
EGFR_HUMAN

> <UniProt (SwissProt) Primary ID of Target Chain>
P00533

> <UniProt (SwissProt) Secondary ID(s) of Target Chain>
O00688,O00732,P06268,Q14225,Q68GS5,Q92795,Q9BZS2,Q9GZX1,Q9H2C9,Q9H3C9,Q9UMD7,Q9UMD8,Q9UMG5

> <UniProt (SwissProt) Alternative ID(s) of Target Chain>


> <UniProt (TrEMBL) Submitted Name of Target Chain>


> <UniProt (TrEMBL) Entry Name of Target Chain>


> <UniProt (TrEMBL) Primary ID of Target Chain>


> <UniProt (TrEMBL) Secondary ID(s) of Target Chain>


> <UniProt (TrEMBL) Alternative ID(s) of Target Chain>


> <training label>
7.29243

> <i_lp_mmshare_version>
54117

> <s_epik_input>
W0NIM11PYyhbY0hdMSljKE9bQ0gzXSlbY0hdYyhjMTIpYyhuW2NIXW4yKVtOSF1jM1tjSF1bY0hdYyhGKVtjSF1bY0hdMw==

> <s_epik_cmdline>
J2VwaWtfcHl0aG9uJywgJy1waHQnLCAnMC4xJywgJy1waCcsICc3LjQnLCAnLXRuJywgJzgnLCAnLW1hJywgJzIwMCcsICctaW1hZScsICc8aW5maWxlLm1hZT4nLCAnLW9tYWUnLCAnPG91dGZpbGUubWFlPic=

> <r_lp_tautomer_probability>
1

> <r_epik_Ionization_Penalty>
  0.0006

> <r_epik_Ionization_Penalty_Charging>
  0.0000

> <r_epik_Ionization_Penalty_Neutral>
  0.0006

> <r_epik_State_Penalty>
  0.0000

> <r_epik_Charging_Adjusted_Penalty>
0

> <i_epik_Tot_Q>
0

> <i_epik_Tot_abs_Q>
0

> <i_f3d_flags>
0

> <s_lp_Force_Field>
OPLS_2005

> <r_lp_Energy>
19.187598

> <b_lp_Chiralities_Consistent>
1

> <s_lp_Variant>
BindingDB_50370944_mol_1-1

> <s_i_glide_gridfile>
struct_1_site_1

> <i_i_glide_lignum>
188

> <i_i_glide_rotatable_bonds>
4

> <r_i_docking_score>
-7.52544685772721

> <r_i_glide_ligand_efficiency>
-0.342065766260328

> <r_i_glide_ligand_efficiency_sa>
-0.958481729744642

> <r_i_glide_ligand_efficiency_ln>
-1.83949370937219

> <r_i_glide_gscore>
-7.52544685772721

> <r_i_glide_lipo>
-2.6003148786386

> <r_i_glide_hbond>
-0.32

> <r_i_glide_metal>
0

> <r_i_glide_rewards>
-2.53212671294539

> <r_i_glide_evdw>
-35.0724182128906

> <r_i_glide_ecoul>
-4.45416069030762

> <r_i_glide_erotb>
0.410006657382818

> <r_i_glide_esite>
-0.061266909335368

> <r_i_glide_emodel>
-35.0008661233778

> <r_i_glide_energy>
-39.5265789031982

> <r_i_glide_einternal>
1.52665174007416

> <i_i_glide_confnum>
3

> <i_i_glide_posenum>
78

> <r_i_glide_eff_state_penalty>
0

> <IC50 (nM)>
51

> <PMID>
16279804

> <r_glide_shape_similarity>
0.771862506866455

> <s_m_subgroup_title>
505 training

> <s_m_subgroupid>
pocket_pv

> <b_m_subgroup_collapsed>
0

$$$$
BindingDB_50428414_mol_1
                    3D
 Schrodinger Suite 2021-2.
 42 44  0  0  1  0            999 V2000
   21.7938   -1.8933   55.1304 N   0  0  0  0  0  0
   21.4998    0.6367   52.4852 C   0  0  0  0  0  0
   19.3320   -0.3887   52.8297 C   0  0  0  0  0  0
   21.2581   -1.1123   54.1741 C   0  0  0  0  0  0
   24.2240    0.8343   53.2413 N   0  0  0  0  0  0
   17.1006   -1.1547   53.2389 C   0  0  0  0  0  0
   18.0091   -0.4068   52.4592 O   0  0  0  0  0  0
   23.0870   -1.7382   55.3898 C   0  0  0  0  0  0
   23.4003   -0.0979   53.8579 C   0  0  0  0  0  0
   22.0495   -0.1695   53.4955 C   0  0  0  0  0  0
   23.9164   -0.8891   54.8109 N   0  0  0  0  0  0
   20.1474    0.5141   52.1336 C   0  0  0  0  0  0
   19.9011   -1.2097   53.8257 C   0  0  0  0  0  0
   25.6028    0.8861   53.2707 C   0  0  0  0  0  0
   26.3699   -0.2894   53.2423 C   0  0  0  0  0  0
   27.7497   -0.2220   53.3783 C   0  0  0  0  0  0
   28.3435    1.0287   53.5434 C   0  0  0  0  0  0
   27.5938    2.2175   53.4223 C   0  0  0  0  0  0
   26.2122    2.1416   53.3009 C   0  0  0  0  0  0
   19.5698    1.2473   51.1259 O   0  0  0  0  0  0
   20.3803    1.5885   50.0167 C   0  0  0  0  0  0
   29.7645    1.0366   53.9954 C   0  0  0  0  0  0
   30.5375    0.7030   52.9751 F   0  0  0  0  0  0
   29.8835    0.0845   54.9176 F   0  0  0  0  0  0
   30.1664    2.3862   54.5898 C   0  0  0  0  0  0
   22.1167    1.3449   51.9567 H   0  0  0  0  0  0
   23.7642    1.6294   52.8400 H   0  0  0  0  0  0
   16.0816   -0.9712   52.8904 H   0  0  0  0  0  0
   17.2936   -2.2257   53.1530 H   0  0  0  0  0  0
   17.1416   -0.8713   54.2911 H   0  0  0  0  0  0
   23.5033   -2.3672   56.1633 H   0  0  0  0  0  0
   19.2978   -1.9173   54.3712 H   0  0  0  0  0  0
   25.9004   -1.2576   53.1613 H   0  0  0  0  0  0
   28.3352   -1.1300   53.4352 H   0  0  0  0  0  0
   28.0213    3.2032   53.5084 H   0  0  0  0  0  0
   25.6270    3.0500   53.2811 H   0  0  0  0  0  0
   19.7480    1.9014   49.1847 H   0  0  0  0  0  0
   21.0364    2.4215   50.2628 H   0  0  0  0  0  0
   20.9781    0.7390   49.6790 H   0  0  0  0  0  0
   31.1846    2.4026   54.9452 H   0  0  0  0  0  0
   29.5148    2.6696   55.4157 H   0  0  0  0  0  0
   30.1072    3.1421   53.8163 H   0  0  0  0  0  0
  1  4  1  0  0  0
  1  8  2  0  0  0
  2 10  2  0  0  0
  2 12  1  0  0  0
  2 26  1  0  0  0
  3  7  1  0  0  0
  3 12  2  0  0  0
  3 13  1  0  0  0
  4 10  1  0  0  0
  4 13  2  0  0  0
  5  9  1  0  0  0
  5 14  1  0  0  0
  5 27  1  0  0  0
  6  7  1  0  0  0
  6 28  1  0  0  0
  6 29  1  0  0  0
  6 30  1  0  0  0
  8 11  1  0  0  0
  8 31  1  0  0  0
  9 10  1  0  0  0
  9 11  2  0  0  0
 12 20  1  0  0  0
 13 32  1  0  0  0
 14 15  2  0  0  0
 14 19  1  0  0  0
 15 16  1  0  0  0
 15 33  1  0  0  0
 16 17  2  0  0  0
 16 34  1  0  0  0
 17 18  1  0  0  0
 17 22  1  0  0  0
 18 19  2  0  0  0
 18 35  1  0  0  0
 19 36  1  0  0  0
 20 21  1  0  0  0
 21 37  1  0  0  0
 21 38  1  0  0  0
 21 39  1  0  0  0
 22 23  1  0  0  0
 22 24  1  0  0  0
 22 25  1  0  0  0
 25 40  1  0  0  0
 25 41  1  0  0  0
 25 42  1  0  0  0
M  END
> <s_m_entry_id>
310

> <s_m_entry_name>
pocket_pv.121

> <s_m_Source_Path>
/home/bortolaa/Project/GT/mario-master/docking/set505protein_struct_1_site_1_set505ligs_train

> <s_m_Source_File>
pocket_pv.maegz

> <i_m_Source_File_Index>
121

> <From>
www.bindingDB.org

> <BindingDB Reactant_set_id>
51049779

> <Ligand InChI>
InChI=1S/C18H17F2N3O2/c1-18(19,20)11-4-6-12(7-5-11)23-17-13-8-15(24-2)16(25-3)9-14(13)21-10-22-17/h4-10H,1-3H3,(H,21,22,23)

> <Ligand InChI Key>
KMKJCARZYATNHK-UHFFFAOYSA-N

> <BindingDB MonomerID>
50428414

> <BindingDB Ligand Name>
CHEMBL2333985

> <Target Name Assigned by Curator or DataSource>
Epidermal growth factor receptor

> <Target Source Organism According to Curator or DataSource>
Homo sapiens

> <Ki (nM)>


> <IC50 (nM)>
4700

> <Kd (nM)>


> <EC50 (nM)>


> <kon (M-1-s-1)>


> <koff (s-1)>


> <pH>


> <Temp C>


> <Curation/DataSource>
ChEMBL

> <Article DOI>
10.1016/j.ejmech.2012.07.036

> <PubChem AID>


> <Patent Number>


> <Authors>
Lu, S; Zheng, W; Ji, L; Luo, Q; Hao, X; Li, X; Wang, F

> <Institution>
Chinese Academy of Sciences

> <Link to Ligand in BindingDB>
http://www.bindingdb.org/bind/chemsearch/marvin/MolStructure.jsp?monomerid=50428414

> <Link to Ligand-Target Pair in BindingDB>
http://www.bindingdb.org/jsp/dbsearch/PrimarySearch_ki.jsp?energyterm=kJ/mole&tag=r21&monomerid=50428414&enzyme=Epidermal+growth+factor+receptor&column=ki&startPg=0&Increment=50&submit=Search

> <Ligand HET ID in PDB>


> <PDB ID(s) for Ligand-Target Complex>


> <PubChem CID>
71720674

> <PubChem SID>
164157289

> <ChEBI ID of Ligand>


> <ChEMBL ID of Ligand>
CHEMBL2333985

> <DrugBank ID of Ligand>


> <IUPHAR_GRAC ID of Ligand>


> <KEGG ID of Ligand>


> <ZINC ID of Ligand>
ZINC95586157

> <Number of Protein Chains in Target (>
1

> <BindingDB Target Chain Sequence>
MRPSGTAGAALLALLAALCPASRALEEKKVCQGTSNKLTQLGTFEDHFLSLQRMFNNCEVVLGNLEITYVQRNYDLSFLKTIQEVAGYVLIALNTVERIPLENLQIIRGNMYYENSYALAVLSNYDANKTGLKELPMRNLQEILHGAVRFSNNPALCNVESIQWRDIVSSDFLSNMSMDFQNHLGSCQKCDPSCPNGSCWGAGEENCQKLTKIICAQQCSGRCRGKSPSDCCHNQCAAGCTGPRESDCLVCRKFRDEATCKDTCPPLMLYNPTTYQMDVNPEGKYSFGATCVKKCPRNYVVTDHGSCVRACGADSYEMEEDGVRKCKKCEGPCRKVCNGIGIGEFKDSLSINATNIKHFKNCTSISGDLHILPVAFRGDSFTHTPPLDPQELDILKTVKEITGFLLIQAWPENRTDLHAFENLEIIRGRTKQHGQFSLAVVSLNITSLGLRSLKEISDGDVIISGNKNLCYANTINWKKLFGTSGQKTKIISNRGENSCKATGQVCHALCSPEGCWGPEPRDCVSCRNVSRGRECVDKCNLLEGEPREFVENSECIQCHPECLPQAMNITCTGRGPDNCIQCAHYIDGPHCVKTCPAGVMGENNTLVWKYADAGHVCHLCHPNCTYGCTGPGLEGCPTNGPKIPSIATGMVGALLLLLVVALGIGLFMRRRHIVRKRTLRRLLQERELVEPLTPSGEAPNQALLRILKETEFKKIKVLGSGAFGTVYKGLWIPEGEKVKIPVAIKELREATSPKANKEILDEAYVMASVDNPHVCRLLGICLTSTVQLITQLMPFGCLLDYVREHKDNIGSQYLLNWCVQIAKGMNYLEDRRLVHRDLAARNVLVKTPQHVKITDFGLAKLLGAEEKEYHAEGGKVPIKWMALESILHRIYTHQSDVWSYGVTVWELMTFGSKPYDGIPASEISSILEKGERLPQPPICTIDVYMIMVKCWMIDADSRPKFRELIIEFSKMARDPQRYLVIQGDERMHLPSPTDSNFYRALMDEEDMDDVVDADEYLIPQQGFFSSPSTSRTPLLSSLSATSNNSTVACIDRNGLQSCPIKEDSFLQRYSSDPTGALTEDSIDDTFLPVPEYINQSVPKRPAGSVQNPVYHNQPLNPAPSRDPHYQDPHSTAVGNPEYLNTVQPTCVNSTFDSPAHWAQKGSHQISLDNPDYQQDFFPKEAKPNGIFKGSTAENAEYLRVAPQSSEFIGA

> <PDB ID(s) of Target Chain>
1IVO,1M14,1M17,1MOX,1XKK,1Z9I,2GS2,2GS6,2ITW,2ITX,2ITY,2J5E,2J5F,2J6M,2RF9,2RGP,3B2V,3BEL,3GOP,3POZ,3QWQ,3VJO,3W2O,3W2P,3W2Q,3W2R,3W2S,3W32,3W33,4G5J,4I23,4JQ7,4JQ8,4JR3,4JRV,4KRO,4LI5,4RJ4,4RJ5,4RJ6,4RJ7,4RJ8,4TKS,4UIP,4UV7,4WKQ,4WRG,4ZAU,5C8K,5C8M,5C8N,5CAL,5CAN,5CAO,5CAP,5CAQ,5CAS,5CAU,5CAV,5EDP,5EDQ,5EDR,5EM5,5EM6,5EM7,5EM8,5FED,5GNK,5HCX,5HCY,5HCZ,5HIB,5HIC,5UGB,5WB7,5WB8,5Y25,6S89,6S8A

> <UniProt (SwissProt) Recommended Name of Target Chain>
Epidermal growth factor receptor

> <UniProt (SwissProt) Entry Name of Target Chain>
EGFR_HUMAN

> <UniProt (SwissProt) Primary ID of Target Chain>
P00533

> <UniProt (SwissProt) Secondary ID(s) of Target Chain>
O00688,O00732,P06268,Q14225,Q68GS5,Q92795,Q9BZS2,Q9GZX1,Q9H2C9,Q9H3C9,Q9UMD7,Q9UMD8,Q9UMG5

> <UniProt (SwissProt) Alternative ID(s) of Target Chain>


> <UniProt (TrEMBL) Submitted Name of Target Chain>


> <UniProt (TrEMBL) Entry Name of Target Chain>


> <UniProt (TrEMBL) Primary ID of Target Chain>


> <UniProt (TrEMBL) Secondary ID(s) of Target Chain>


> <UniProt (TrEMBL) Alternative ID(s) of Target Chain>


> <training label>
5.3279

> <i_lp_mmshare_version>
54117

> <s_epik_input>
W0NIM11PYyhbY0hdMSljKE9bQ0gzXSlbY0hdYyhjMTIpYyhuW2NIXW4yKVtOSF1jM1tjSF1bY0hdYyhbY0hdW2NIXTMpQyhGKShGKVtDSDNd

> <s_epik_cmdline>
J2VwaWtfcHl0aG9uJywgJy1waHQnLCAnMC4xJywgJy1waCcsICc3LjQnLCAnLXRuJywgJzgnLCAnLW1hJywgJzIwMCcsICctaW1hZScsICc8aW5maWxlLm1hZT4nLCAnLW9tYWUnLCAnPG91dGZpbGUubWFlPic=

> <r_lp_tautomer_probability>
1

> <r_epik_Ionization_Penalty>
  0.0006

> <r_epik_Ionization_Penalty_Charging>
  0.0000

> <r_epik_Ionization_Penalty_Neutral>
  0.0006

> <r_epik_State_Penalty>
  0.0000

> <r_epik_Charging_Adjusted_Penalty>
0

> <i_epik_Tot_Q>
0

> <i_epik_Tot_abs_Q>
0

> <i_f3d_flags>
0

> <s_lp_Force_Field>
OPLS_2005

> <r_lp_Energy>
20.336659

> <b_lp_Chiralities_Consistent>
1

> <s_lp_Variant>
BindingDB_50428414_mol_1-1

> <s_i_glide_gridfile>
struct_1_site_1

> <i_i_glide_lignum>
40

> <i_i_glide_rotatable_bonds>
5

> <r_i_docking_score>
-7.52369063182612

> <r_i_glide_ligand_efficiency>
-0.300947625273045

> <r_i_glide_ligand_efficiency_sa>
-0.879976193627243

> <r_i_glide_ligand_efficiency_ln>
-1.78334014655697

> <r_i_glide_gscore>
-7.52369063182612

> <r_i_glide_lipo>
-2.67352847074772

> <r_i_glide_hbond>
-0.32

> <r_i_glide_metal>
0

> <r_i_glide_rewards>
-2.23189618912219

> <r_i_glide_evdw>
-33.3484420776367

> <r_i_glide_ecoul>
-5.9262261390686

> <r_i_glide_erotb>
0.318603214823543

> <r_i_glide_esite>
-0.0605131620376166

> <r_i_glide_emodel>
-33.7883985184486

> <r_i_glide_energy>
-39.2746682167053

> <r_i_glide_einternal>
5.09907531738281

> <i_i_glide_confnum>
2

> <i_i_glide_posenum>
263

> <r_i_glide_eff_state_penalty>
0

> <PMID>
22867529

> <r_glide_shape_similarity>
0.780272245407104

> <s_m_subgroup_title>
505 training

> <s_m_subgroupid>
pocket_pv

> <b_m_subgroup_collapsed>
0

$$$$
BindingDB_50308834_mol_1
                    3D
 Schrodinger Suite 2021-2.
 38 40  0  0  1  0            999 V2000
   20.1701    0.5196   52.1592 C   0  0  0  0  0  0
   19.3444   -0.3870   52.8388 C   0  0  0  0  0  0
   19.9092   -1.2096   53.8395 C   0  0  0  0  0  0
   21.5211    0.6436   52.5108 C   0  0  0  0  0  0
   22.0765   -0.1728   53.5073 C   0  0  0  0  0  0
   21.2714   -1.1146   54.1820 C   0  0  0  0  0  0
   21.8033   -1.8955   55.1396 N   0  0  0  0  0  0
   23.0948   -1.7382   55.4097 C   0  0  0  0  0  0
   23.9384   -0.9009   54.8241 N   0  0  0  0  0  0
   23.4389   -0.0999   53.8689 C   0  0  0  0  0  0
   24.2892    0.8466   53.2781 N   0  0  0  0  0  0
   25.6835    0.9475   53.3437 C   0  0  0  0  0  0
   26.5147   -0.1887   53.3341 C   0  0  0  0  0  0
   27.9107   -0.0501   53.3827 C   0  0  0  0  0  0
   28.4908    1.2241   53.4378 C   0  0  0  0  0  0
   27.6690    2.3590   53.4236 C   0  0  0  0  0  0
   26.2730    2.2235   53.3699 C   0  0  0  0  0  0
   28.9105   -1.4456   53.3712 Cl  0  0  0  0  0  0
   19.6197    1.3039   51.1894 O   0  0  0  0  0  0
   20.3217    1.3587   49.9671 C   0  0  0  0  0  0
   19.5083    2.1703   49.0626 C   0  0  0  0  0  0
   18.0239   -0.3989   52.4576 O   0  0  0  0  0  0
   17.1092   -1.1425   53.2316 C   0  0  0  0  0  0
   18.7612    2.8211   48.3542 C   0  0  0  0  0  0
   19.3035   -1.9204   54.3798 H   0  0  0  0  0  0
   22.1319    1.3721   52.0021 H   0  0  0  0  0  0
   23.5071   -2.3790   56.1742 H   0  0  0  0  0  0
   23.8230    1.6206   52.8362 H   0  0  0  0  0  0
   26.0877   -1.1799   53.2833 H   0  0  0  0  0  0
   29.5659    1.3346   53.4799 H   0  0  0  0  0  0
   28.1077    3.3461   53.4548 H   0  0  0  0  0  0
   25.6619    3.1157   53.3605 H   0  0  0  0  0  0
   20.4321    0.3431   49.5546 H   0  0  0  0  0  0
   21.3002    1.8292   50.0509 H   0  0  0  0  0  0
   16.0962   -0.9542   52.8770 H   0  0  0  0  0  0
   17.2990   -2.2128   53.1410 H   0  0  0  0  0  0
   17.1474   -0.8629   54.2850 H   0  0  0  0  0  0
   18.1065    3.4026   47.7451 H   0  0  0  0  0  0
  1  2  2  0  0  0
  1  4  1  0  0  0
  1 19  1  0  0  0
  2  3  1  0  0  0
  2 22  1  0  0  0
  3  6  2  0  0  0
  3 25  1  0  0  0
  4  5  2  0  0  0
  4 26  1  0  0  0
  5  6  1  0  0  0
  5 10  1  0  0  0
  6  7  1  0  0  0
  7  8  2  0  0  0
  8  9  1  0  0  0
  8 27  1  0  0  0
  9 10  2  0  0  0
 10 11  1  0  0  0
 11 12  1  0  0  0
 11 28  1  0  0  0
 12 13  2  0  0  0
 12 17  1  0  0  0
 13 14  1  0  0  0
 13 29  1  0  0  0
 14 15  2  0  0  0
 14 18  1  0  0  0
 15 16  1  0  0  0
 15 30  1  0  0  0
 16 17  2  0  0  0
 16 31  1  0  0  0
 17 32  1  0  0  0
 19 20  1  0  0  0
 20 21  1  0  0  0
 20 33  1  0  0  0
 20 34  1  0  0  0
 21 24  3  0  0  0
 22 23  1  0  0  0
 23 35  1  0  0  0
 23 36  1  0  0  0
 23 37  1  0  0  0
 24 38  1  0  0  0
M  END
> <s_m_entry_id>
311

> <s_m_entry_name>
pocket_pv.122

> <s_m_Source_Path>
/home/bortolaa/Project/GT/mario-master/docking/set505protein_struct_1_site_1_set505ligs_train

> <s_m_Source_File>
pocket_pv.maegz

> <i_m_Source_File_Index>
122

> <From>
www.bindingDB.org

> <BindingDB Reactant_set_id>
50554737

> <Ligand InChI>
InChI=1S/C18H14ClN3O2/c1-3-7-24-17-9-14-15(10-16(17)23-2)20-11-21-18(14)22-13-6-4-5-12(19)8-13/h1,4-6,8-11H,7H2,2H3,(H,20,21,22)

> <Ligand InChI Key>
WBACAQZZINXVMK-UHFFFAOYSA-N

> <BindingDB MonomerID>
50308834

> <BindingDB Ligand Name>
4-(3'-Chloroanilino)-7-methoxy-6-(prop-2-ynyloxy)quinazoline::CHEMBL597948

> <Target Name Assigned by Curator or DataSource>
Epidermal growth factor receptor

> <Target Source Organism According to Curator or DataSource>
Homo sapiens

> <Ki (nM)>


> <Kd (nM)>


> <EC50 (nM)>


> <kon (M-1-s-1)>


> <koff (s-1)>


> <pH>


> <Temp C>


> <Curation/DataSource>
ChEMBL

> <Article DOI>
10.1016/j.bmc.2009.11.035

> <PubChem AID>


> <Patent Number>


> <Authors>
Ban, HS; Tanaka, Y; Nabeyama, W; Hatori, M; Nakamura, H

> <Institution>
Gakushuin University

> <Link to Ligand in BindingDB>
http://www.bindingdb.org/bind/chemsearch/marvin/MolStructure.jsp?monomerid=50308834

> <Link to Ligand-Target Pair in BindingDB>
http://www.bindingdb.org/jsp/dbsearch/PrimarySearch_ki.jsp?energyterm=kJ/mole&tag=r21&monomerid=50308834&enzyme=Epidermal+growth+factor+receptor&column=ki&startPg=0&Increment=50&submit=Search

> <Ligand HET ID in PDB>


> <PDB ID(s) for Ligand-Target Complex>


> <PubChem CID>
46230527

> <PubChem SID>
104163195

> <ChEBI ID of Ligand>


> <ChEMBL ID of Ligand>
CHEMBL597948

> <DrugBank ID of Ligand>


> <IUPHAR_GRAC ID of Ligand>


> <KEGG ID of Ligand>


> <ZINC ID of Ligand>
ZINC45355800

> <Number of Protein Chains in Target (>
1

> <BindingDB Target Chain Sequence>
MRPSGTAGAALLALLAALCPASRALEEKKVCQGTSNKLTQLGTFEDHFLSLQRMFNNCEVVLGNLEITYVQRNYDLSFLKTIQEVAGYVLIALNTVERIPLENLQIIRGNMYYENSYALAVLSNYDANKTGLKELPMRNLQEILHGAVRFSNNPALCNVESIQWRDIVSSDFLSNMSMDFQNHLGSCQKCDPSCPNGSCWGAGEENCQKLTKIICAQQCSGRCRGKSPSDCCHNQCAAGCTGPRESDCLVCRKFRDEATCKDTCPPLMLYNPTTYQMDVNPEGKYSFGATCVKKCPRNYVVTDHGSCVRACGADSYEMEEDGVRKCKKCEGPCRKVCNGIGIGEFKDSLSINATNIKHFKNCTSISGDLHILPVAFRGDSFTHTPPLDPQELDILKTVKEITGFLLIQAWPENRTDLHAFENLEIIRGRTKQHGQFSLAVVSLNITSLGLRSLKEISDGDVIISGNKNLCYANTINWKKLFGTSGQKTKIISNRGENSCKATGQVCHALCSPEGCWGPEPRDCVSCRNVSRGRECVDKCNLLEGEPREFVENSECIQCHPECLPQAMNITCTGRGPDNCIQCAHYIDGPHCVKTCPAGVMGENNTLVWKYADAGHVCHLCHPNCTYGCTGPGLEGCPTNGPKIPSIATGMVGALLLLLVVALGIGLFMRRRHIVRKRTLRRLLQERELVEPLTPSGEAPNQALLRILKETEFKKIKVLGSGAFGTVYKGLWIPEGEKVKIPVAIKELREATSPKANKEILDEAYVMASVDNPHVCRLLGICLTSTVQLITQLMPFGCLLDYVREHKDNIGSQYLLNWCVQIAKGMNYLEDRRLVHRDLAARNVLVKTPQHVKITDFGLAKLLGAEEKEYHAEGGKVPIKWMALESILHRIYTHQSDVWSYGVTVWELMTFGSKPYDGIPASEISSILEKGERLPQPPICTIDVYMIMVKCWMIDADSRPKFRELIIEFSKMARDPQRYLVIQGDERMHLPSPTDSNFYRALMDEEDMDDVVDADEYLIPQQGFFSSPSTSRTPLLSSLSATSNNSTVACIDRNGLQSCPIKEDSFLQRYSSDPTGALTEDSIDDTFLPVPEYINQSVPKRPAGSVQNPVYHNQPLNPAPSRDPHYQDPHSTAVGNPEYLNTVQPTCVNSTFDSPAHWAQKGSHQISLDNPDYQQDFFPKEAKPNGIFKGSTAENAEYLRVAPQSSEFIGA

> <PDB ID(s) of Target Chain>
1IVO,1M14,1M17,1MOX,1XKK,1Z9I,2GS2,2GS6,2ITW,2ITX,2ITY,2J5E,2J5F,2J6M,2RF9,2RGP,3B2V,3BEL,3GOP,3POZ,3QWQ,3VJO,3W2O,3W2P,3W2Q,3W2R,3W2S,3W32,3W33,4G5J,4I23,4JQ7,4JQ8,4JR3,4JRV,4KRO,4LI5,4RJ4,4RJ5,4RJ6,4RJ7,4RJ8,4TKS,4UIP,4UV7,4WKQ,4WRG,4ZAU,5C8K,5C8M,5C8N,5CAL,5CAN,5CAO,5CAP,5CAQ,5CAS,5CAU,5CAV,5EDP,5EDQ,5EDR,5EM5,5EM6,5EM7,5EM8,5FED,5GNK,5HCX,5HCY,5HCZ,5HIB,5HIC,5UGB,5WB7,5WB8,5Y25,6S89,6S8A

> <UniProt (SwissProt) Recommended Name of Target Chain>
Epidermal growth factor receptor

> <UniProt (SwissProt) Entry Name of Target Chain>
EGFR_HUMAN

> <UniProt (SwissProt) Primary ID of Target Chain>
P00533

> <UniProt (SwissProt) Secondary ID(s) of Target Chain>
O00688,O00732,P06268,Q14225,Q68GS5,Q92795,Q9BZS2,Q9GZX1,Q9H2C9,Q9H3C9,Q9UMD7,Q9UMD8,Q9UMG5

> <UniProt (SwissProt) Alternative ID(s) of Target Chain>


> <UniProt (TrEMBL) Submitted Name of Target Chain>


> <UniProt (TrEMBL) Entry Name of Target Chain>


> <UniProt (TrEMBL) Primary ID of Target Chain>


> <UniProt (TrEMBL) Secondary ID(s) of Target Chain>


> <UniProt (TrEMBL) Alternative ID(s) of Target Chain>


> <training label>
7.5867

> <i_lp_mmshare_version>
54117

> <s_epik_input>
W0NIXSNDW0NIMl1PYyhbY0hdMSljKE9bQ0gzXSlbY0hdYyhjMTIpbltjSF1uYzJbTkhdYzNbY0hdYyhDbClbY0hdW2NIXVtjSF0z

> <s_epik_cmdline>
J2VwaWtfcHl0aG9uJywgJy1waHQnLCAnMC4xJywgJy1waCcsICc3LjQnLCAnLXRuJywgJzgnLCAnLW1hJywgJzIwMCcsICctaW1hZScsICc8aW5maWxlLm1hZT4nLCAnLW9tYWUnLCAnPG91dGZpbGUubWFlPic=

> <r_lp_tautomer_probability>
1

> <r_epik_Ionization_Penalty>
  0.0006

> <r_epik_Ionization_Penalty_Charging>
  0.0000

> <r_epik_Ionization_Penalty_Neutral>
  0.0006

> <r_epik_State_Penalty>
  0.0000

> <r_epik_Charging_Adjusted_Penalty>
0

> <i_epik_Tot_Q>
0

> <i_epik_Tot_abs_Q>
0

> <i_f3d_flags>
0

> <s_lp_Force_Field>
OPLS_2005

> <r_lp_Energy>
20.095199

> <b_lp_Chiralities_Consistent>
1

> <s_lp_Variant>
BindingDB_50308834_mol_1-1

> <s_i_glide_gridfile>
struct_1_site_1

> <i_i_glide_lignum>
204

> <i_i_glide_rotatable_bonds>
6

> <r_i_docking_score>
-7.51653291093951

> <r_i_glide_ligand_efficiency>
-0.313188871289146

> <r_i_glide_ligand_efficiency_sa>
-0.903393029126656

> <r_i_glide_ligand_efficiency_ln>
-1.79905123680839

> <r_i_glide_gscore>
-7.51653291093951

> <r_i_glide_lipo>
-2.95309163691216

> <r_i_glide_hbond>
-0.32

> <r_i_glide_metal>
0

> <r_i_glide_rewards>
-2.25100669574372

> <r_i_glide_evdw>
-40.510383605957

> <r_i_glide_ecoul>
-5.24483728408813

> <r_i_glide_erotb>
0.819810194627448

> <r_i_glide_esite>
0

> <r_i_glide_emodel>
-52.849800420617

> <r_i_glide_energy>
-45.7552208900452

> <r_i_glide_einternal>
2.90259099006653

> <i_i_glide_confnum>
25

> <i_i_glide_posenum>
343

> <r_i_glide_eff_state_penalty>
0

> <IC50 (nM)>
25.9

> <PMID>
19969465

> <r_glide_shape_similarity>
0.85791015625

> <s_m_subgroup_title>
505 training

> <s_m_subgroupid>
pocket_pv

> <b_m_subgroup_collapsed>
0

$$$$
BindingDB_50102091_mol_1
                    3D
 Schrodinger Suite 2021-2.
 49 51  0  0  1  0            999 V2000
   22.0749   -0.1738   53.5094 C   0  0  0  0  0  0
   23.4374   -0.1012   53.8711 C   0  0  0  0  0  0
   21.2704   -1.1168   54.1849 C   0  0  0  0  0  0
   21.5261    0.6352   52.5034 C   0  0  0  0  0  0
   23.9381   -0.9010   54.8278 N   0  0  0  0  0  0
   19.9078   -1.2098   53.8408 C   0  0  0  0  0  0
   24.2864    0.8453   53.2788 N   0  0  0  0  0  0
   20.1725    0.5110   52.1423 C   0  0  0  0  0  0
   19.3464   -0.3907   52.8333 C   0  0  0  0  0  0
   27.8891   -0.0875   53.3869 C   0  0  0  0  0  0
   21.8037   -1.8995   55.1420 N   0  0  0  0  0  0
   26.4963   -0.2104   53.3314 C   0  0  0  0  0  0
   23.0961   -1.7421   55.4125 C   0  0  0  0  0  0
   25.6794    0.9384   53.3419 C   0  0  0  0  0  0
   19.6060    1.2130   51.1107 O   0  0  0  0  0  0
   28.4701    1.1828   53.4559 C   0  0  0  0  0  0
   27.6697    2.3342   53.4280 C   0  0  0  0  0  0
   28.8797   -1.4955   53.3746 Cl  0  0  0  0  0  0
   20.4270    2.0656   50.3328 C   0  0  0  0  0  0
   26.2735    2.2131   53.3667 C   0  0  0  0  0  0
   19.5718    2.8279   49.3130 C   0  0  1  0  0  0
   29.8063    1.2840   53.5604 F   0  0  0  0  0  0
   18.0260   -0.4043   52.4450 O   0  0  0  0  0  0
   17.2911    3.5540   48.6440 N   0  3  0  0  0  0
   19.7906    2.3342   48.0167 O   0  0  0  0  0  0
   18.0659    2.7505   49.5989 C   0  0  0  0  0  0
   17.3370    5.0135   48.8791 C   0  0  0  0  0  0
   17.1022   -1.1402   53.2162 C   0  0  0  0  0  0
   22.1692    1.3240   51.9815 H   0  0  0  0  0  0
   19.2994   -1.9181   54.3814 H   0  0  0  0  0  0
   23.8222    1.6239   52.8424 H   0  0  0  0  0  0
   26.0590   -1.1964   53.2757 H   0  0  0  0  0  0
   23.5091   -2.3850   56.1746 H   0  0  0  0  0  0
   28.1238    3.3138   53.4704 H   0  0  0  0  0  0
   21.2328    1.5113   49.8478 H   0  0  0  0  0  0
   20.8833    2.8052   50.9923 H   0  0  0  0  0  0
   25.6687    3.1095   53.3566 H   0  0  0  0  0  0
   19.9067    3.8652   49.3095 H   0  0  0  0  0  0
   16.3257    3.2603   48.7016 H   0  0  0  0  0  0
   19.5463    1.4181   47.9949 H   0  0  0  0  0  0
   17.8401    3.0743   50.6163 H   0  0  0  0  0  0
   17.7227    1.7178   49.5155 H   0  0  0  0  0  0
   16.6447    5.5225   48.2079 H   0  0  0  0  0  0
   18.3331    5.4171   48.6957 H   0  0  0  0  0  0
   17.0482    5.2608   49.9033 H   0  0  0  0  0  0
   16.0920   -0.9481   52.8563 H   0  0  0  0  0  0
   17.2870   -2.2114   53.1311 H   0  0  0  0  0  0
   17.1369   -0.8606   54.2692 H   0  0  0  0  0  0
   17.6513    3.3384   47.7225 H   0  0  0  0  0  0
  1  2  2  0  0  0
  1  3  1  0  0  0
  1  4  1  0  0  0
  2  5  1  0  0  0
  2  7  1  0  0  0
  3  6  1  0  0  0
  3 11  2  0  0  0
  4  8  2  0  0  0
  4 29  1  0  0  0
  5 13  2  0  0  0
  6  9  2  0  0  0
  6 30  1  0  0  0
  7 14  1  0  0  0
  7 31  1  0  0  0
  8  9  1  0  0  0
  8 15  1  0  0  0
  9 23  1  0  0  0
 10 12  2  0  0  0
 10 16  1  0  0  0
 10 18  1  0  0  0
 11 13  1  0  0  0
 12 14  1  0  0  0
 12 32  1  0  0  0
 13 33  1  0  0  0
 14 20  2  0  0  0
 15 19  1  0  0  0
 16 17  2  0  0  0
 16 22  1  0  0  0
 17 20  1  0  0  0
 17 34  1  0  0  0
 19 21  1  0  0  0
 19 35  1  0  0  0
 19 36  1  0  0  0
 20 37  1  0  0  0
 21 25  1  0  0  0
 21 26  1  0  0  0
 21 38  1  0  0  0
 23 28  1  0  0  0
 24 26  1  0  0  0
 24 27  1  0  0  0
 24 39  1  0  0  0
 24 49  1  0  0  0
 25 40  1  0  0  0
 26 41  1  0  0  0
 26 42  1  0  0  0
 27 43  1  0  0  0
 27 44  1  0  0  0
 27 45  1  0  0  0
 28 46  1  0  0  0
 28 47  1  0  0  0
 28 48  1  0  0  0
M  CHG  1  24   1
M  END
> <s_m_entry_id>
312

> <s_m_entry_name>
pocket_pv.123

> <s_m_Source_Path>
/home/bortolaa/Project/GT/mario-master/docking/set505protein_struct_1_site_1_set505ligs_train

> <s_m_Source_File>
pocket_pv.maegz

> <i_m_Source_File_Index>
123

> <From>
www.bindingDB.org

> <BindingDB Reactant_set_id>
50733038

> <Ligand InChI>
InChI=1S/C19H20ClFN4O3/c1-22-8-12(26)9-28-18-6-13-16(7-17(18)27-2)23-10-24-19(13)25-11-3-4-15(21)14(20)5-11/h3-7,10,12,22,26H,8-9H2,1-2H3,(H,23,24,25)

> <Ligand InChI Key>
WBXRECNDPTXGIZ-UHFFFAOYSA-N

> <BindingDB MonomerID>
50102091

> <BindingDB Ligand Name>
1-[4-(3-Chloro-4-fluoro-phenylamino)-7-methoxy-quinazolin-6-yloxy]-3-methylamino-propan-2-ol::CHEMBL56266

> <Target Name Assigned by Curator or DataSource>
Epidermal growth factor receptor

> <Target Source Organism According to Curator or DataSource>
Homo sapiens

> <Ki (nM)>


> <Kd (nM)>


> <EC50 (nM)>


> <kon (M-1-s-1)>


> <koff (s-1)>


> <pH>


> <Temp C>


> <Curation/DataSource>
ChEMBL

> <Article DOI>
10.1016/s0960-894x(01)00344-4

> <PubChem AID>


> <Patent Number>


> <Authors>
Barker, AJ; Gibson, KH; Grundy, W; Godfrey, AA; Barlow, JJ; Healy, MP; Woodburn, JR; Ashton, SE; Curry, BJ; Scarlett, L; Henthorn, L; Richards, L

> <Institution>
AstraZeneca

> <Link to Ligand in BindingDB>
http://www.bindingdb.org/bind/chemsearch/marvin/MolStructure.jsp?monomerid=50102091

> <Link to Ligand-Target Pair in BindingDB>
http://www.bindingdb.org/jsp/dbsearch/PrimarySearch_ki.jsp?energyterm=kJ/mole&tag=r21&monomerid=50102091&enzyme=Epidermal+growth+factor+receptor&column=ki&startPg=0&Increment=50&submit=Search

> <Ligand HET ID in PDB>


> <PDB ID(s) for Ligand-Target Complex>


> <PubChem CID>
44299923

> <PubChem SID>
103998647

> <ChEBI ID of Ligand>


> <ChEMBL ID of Ligand>
CHEMBL56266

> <DrugBank ID of Ligand>


> <IUPHAR_GRAC ID of Ligand>


> <KEGG ID of Ligand>


> <ZINC ID of Ligand>
ZINC29556067

> <Number of Protein Chains in Target (>
1

> <BindingDB Target Chain Sequence>
MRPSGTAGAALLALLAALCPASRALEEKKVCQGTSNKLTQLGTFEDHFLSLQRMFNNCEVVLGNLEITYVQRNYDLSFLKTIQEVAGYVLIALNTVERIPLENLQIIRGNMYYENSYALAVLSNYDANKTGLKELPMRNLQEILHGAVRFSNNPALCNVESIQWRDIVSSDFLSNMSMDFQNHLGSCQKCDPSCPNGSCWGAGEENCQKLTKIICAQQCSGRCRGKSPSDCCHNQCAAGCTGPRESDCLVCRKFRDEATCKDTCPPLMLYNPTTYQMDVNPEGKYSFGATCVKKCPRNYVVTDHGSCVRACGADSYEMEEDGVRKCKKCEGPCRKVCNGIGIGEFKDSLSINATNIKHFKNCTSISGDLHILPVAFRGDSFTHTPPLDPQELDILKTVKEITGFLLIQAWPENRTDLHAFENLEIIRGRTKQHGQFSLAVVSLNITSLGLRSLKEISDGDVIISGNKNLCYANTINWKKLFGTSGQKTKIISNRGENSCKATGQVCHALCSPEGCWGPEPRDCVSCRNVSRGRECVDKCNLLEGEPREFVENSECIQCHPECLPQAMNITCTGRGPDNCIQCAHYIDGPHCVKTCPAGVMGENNTLVWKYADAGHVCHLCHPNCTYGCTGPGLEGCPTNGPKIPSIATGMVGALLLLLVVALGIGLFMRRRHIVRKRTLRRLLQERELVEPLTPSGEAPNQALLRILKETEFKKIKVLGSGAFGTVYKGLWIPEGEKVKIPVAIKELREATSPKANKEILDEAYVMASVDNPHVCRLLGICLTSTVQLITQLMPFGCLLDYVREHKDNIGSQYLLNWCVQIAKGMNYLEDRRLVHRDLAARNVLVKTPQHVKITDFGLAKLLGAEEKEYHAEGGKVPIKWMALESILHRIYTHQSDVWSYGVTVWELMTFGSKPYDGIPASEISSILEKGERLPQPPICTIDVYMIMVKCWMIDADSRPKFRELIIEFSKMARDPQRYLVIQGDERMHLPSPTDSNFYRALMDEEDMDDVVDADEYLIPQQGFFSSPSTSRTPLLSSLSATSNNSTVACIDRNGLQSCPIKEDSFLQRYSSDPTGALTEDSIDDTFLPVPEYINQSVPKRPAGSVQNPVYHNQPLNPAPSRDPHYQDPHSTAVGNPEYLNTVQPTCVNSTFDSPAHWAQKGSHQISLDNPDYQQDFFPKEAKPNGIFKGSTAENAEYLRVAPQSSEFIGA

> <PDB ID(s) of Target Chain>
1IVO,1M14,1M17,1MOX,1XKK,1Z9I,2GS2,2GS6,2ITW,2ITX,2ITY,2J5E,2J5F,2J6M,2RF9,2RGP,3B2V,3BEL,3GOP,3POZ,3QWQ,3VJO,3W2O,3W2P,3W2Q,3W2R,3W2S,3W32,3W33,4G5J,4I23,4JQ7,4JQ8,4JR3,4JRV,4KRO,4LI5,4RJ4,4RJ5,4RJ6,4RJ7,4RJ8,4TKS,4UIP,4UV7,4WKQ,4WRG,4ZAU,5C8K,5C8M,5C8N,5CAL,5CAN,5CAO,5CAP,5CAQ,5CAS,5CAU,5CAV,5EDP,5EDQ,5EDR,5EM5,5EM6,5EM7,5EM8,5FED,5GNK,5HCX,5HCY,5HCZ,5HIB,5HIC,5UGB,5WB7,5WB8,5Y25,6S89,6S8A

> <UniProt (SwissProt) Recommended Name of Target Chain>
Epidermal growth factor receptor

> <UniProt (SwissProt) Entry Name of Target Chain>
EGFR_HUMAN

> <UniProt (SwissProt) Primary ID of Target Chain>
P00533

> <UniProt (SwissProt) Secondary ID(s) of Target Chain>
O00688,O00732,P06268,Q14225,Q68GS5,Q92795,Q9BZS2,Q9GZX1,Q9H2C9,Q9H3C9,Q9UMD7,Q9UMD8,Q9UMG5

> <UniProt (SwissProt) Alternative ID(s) of Target Chain>


> <UniProt (TrEMBL) Submitted Name of Target Chain>


> <UniProt (TrEMBL) Entry Name of Target Chain>


> <UniProt (TrEMBL) Primary ID of Target Chain>


> <UniProt (TrEMBL) Secondary ID(s) of Target Chain>


> <UniProt (TrEMBL) Alternative ID(s) of Target Chain>


> <training label>
8.30103

> <i_lp_mmshare_version>
54117

> <s_epik_input>
W0NIM11bTkhdW0NIMl1bQ0BIXShbT0hdKVtDSDJdT2MoW2NIXTEpYyhPW0NIM10pW2NIXWMoYzEyKW5bY0hdbmMyW05IXWMoW2NIXWMzQ2wpW2NIXVtjSF1jM0Y=

> <s_epik_cmdline>
J2VwaWtfcHl0aG9uJywgJy1waHQnLCAnMC4xJywgJy1waCcsICc3LjQnLCAnLXRuJywgJzgnLCAnLW1hJywgJzIwMCcsICctaW1hZScsICc8aW5maWxlLm1hZT4nLCAnLW9tYWUnLCAnPG91dGZpbGUubWFlPic=

> <r_lp_tautomer_probability>
1

> <r_epik_Ionization_Penalty>
  0.0240

> <r_epik_Ionization_Penalty_Charging>
  0.0235

> <r_epik_Ionization_Penalty_Neutral>
  0.0005

> <r_epik_State_Penalty>
  0.0000

> <r_epik_Charging_Adjusted_Penalty>
0.023510548472852

> <i_epik_Tot_Q>
1

> <i_epik_Tot_abs_Q>
1

> <i_f3d_flags>
0

> <s_lp_Force_Field>
OPLS_2005

> <r_lp_Energy>
21.135433

> <b_lp_Chiralities_Consistent>
1

> <s_lp_Variant>
BindingDB_50102091_mol_1-1

> <s_i_glide_gridfile>
struct_1_site_1

> <i_i_glide_lignum>
254

> <i_i_glide_rotatable_bonds>
9

> <r_i_docking_score>
-7.51417561141967

> <r_i_glide_ligand_efficiency>
-0.26836341469356

> <r_i_glide_ligand_efficiency_sa>
-0.81490938460821

> <r_i_glide_ligand_efficiency_ln>
-1.7344923568984

> <r_i_glide_gscore>
-7.51417561141967

> <r_i_glide_lipo>
-2.9182220283621

> <r_i_glide_hbond>
-0.308845806844011

> <r_i_glide_metal>
0

> <r_i_glide_rewards>
-1.78272339368353

> <r_i_glide_evdw>
-41.423168182373

> <r_i_glide_ecoul>
-7.19827127456665

> <r_i_glide_erotb>
0.709722897295514

> <r_i_glide_esite>
-0.0632081795218923

> <r_i_glide_emodel>
-67.1605918794037

> <r_i_glide_energy>
-48.6214394569397

> <r_i_glide_einternal>
4.76403856277466

> <i_i_glide_confnum>
50

> <i_i_glide_posenum>
163

> <r_i_glide_eff_state_penalty>
0

> <IC50 (nM)>
5

> <PMID>
11459659

> <r_glide_shape_similarity>
0.891923725605011

> <s_m_subgroup_title>
505 training

> <s_m_subgroupid>
pocket_pv

> <b_m_subgroup_collapsed>
0

$$$$
BindingDB_50189992_mol_1
                    3D
 Schrodinger Suite 2021-2.
 55 58  0  0  1  0            999 V2000
   21.8024   -1.9068   55.1461 N   0  0  0  0  0  0
   23.0978   -1.7469   55.4204 C   0  0  0  0  0  0
   23.9348   -0.8870   54.8455 N   0  0  0  0  0  0
   23.4375   -0.0961   53.8696 C   0  0  0  0  0  0
   21.2669   -1.1205   54.1845 C   0  0  0  0  0  0
   22.0711   -0.1726   53.4942 C   0  0  0  0  0  0
   21.5078    0.6307   52.4708 C   0  0  0  0  0  0
   20.1378    0.4989   52.1343 C   0  0  0  0  0  0
   19.3195   -0.4047   52.8458 C   0  0  0  0  0  0
   19.8980   -1.2187   53.8526 C   0  0  0  0  0  0
   17.9803   -0.4353   52.4865 O   0  0  0  0  0  0
   17.0636   -1.1623   53.2919 C   0  0  0  0  0  0
   19.5092    1.2162   51.1444 O   0  0  0  0  0  0
   20.2617    1.7019   50.0478 C   0  0  0  0  0  0
   19.2420    2.4287   49.1452 C   0  0  0  0  0  0
   19.8803    3.4706   48.2083 C   0  0  0  0  0  0
   20.7984    4.4181   48.8765 N   0  0  0  0  0  0
   21.5409    5.2654   47.9286 C   0  0  0  0  0  0
   22.5526    6.1997   48.6533 C   0  0  0  0  0  0
   21.8835    6.9883   49.6499 O   0  0  0  0  0  0
   21.1737    6.1962   50.6148 C   0  0  0  0  0  0
   20.1489    5.2710   49.8967 C   0  0  0  0  0  0
   24.2878    0.8527   53.2737 N   0  0  0  0  0  0
   25.6888    0.9456   53.3387 C   0  0  0  0  0  0
   26.5344   -0.1994   53.3116 C   0  0  0  0  0  0
   27.9384   -0.0551   53.3816 C   0  0  0  0  0  0
   28.5074    1.2327   53.4431 C   0  0  0  0  0  0
   27.6771    2.3712   53.4290 C   0  0  0  0  0  0
   26.2747    2.2319   53.3729 C   0  0  0  0  0  0
   28.9652   -1.4506   53.3721 Cl  0  0  0  0  0  0
   26.0199   -1.4467   53.1550 F   0  0  0  0  0  0
   23.5094   -2.3820   56.1900 H   0  0  0  0  0  0
   22.1267    1.3340   51.9378 H   0  0  0  0  0  0
   19.2965   -1.9254   54.4024 H   0  0  0  0  0  0
   16.0460   -0.9717   52.9505 H   0  0  0  0  0  0
   17.2448   -2.2351   53.2188 H   0  0  0  0  0  0
   17.1229   -0.8637   54.3388 H   0  0  0  0  0  0
   20.7452    0.8927   49.4976 H   0  0  0  0  0  0
   21.0310    2.3830   50.4057 H   0  0  0  0  0  0
   18.4966    2.9292   49.7638 H   0  0  0  0  0  0
   18.6936    1.6901   48.5616 H   0  0  0  0  0  0
   19.0916    4.0266   47.6991 H   0  0  0  0  0  0
   20.4244    2.9372   47.4265 H   0  0  0  0  0  0
   20.8389    5.8647   47.3483 H   0  0  0  0  0  0
   22.0770    4.6387   47.2155 H   0  0  0  0  0  0
   23.3409    5.6120   49.1259 H   0  0  0  0  0  0
   23.0377    6.8644   47.9390 H   0  0  0  0  0  0
   21.8828    5.6035   51.1935 H   0  0  0  0  0  0
   20.6692    6.8608   51.3148 H   0  0  0  0  0  0
   19.6489    4.6574   50.6453 H   0  0  0  0  0  0
   19.3767    5.8863   49.4322 H   0  0  0  0  0  0
   23.8200    1.6283   52.8288 H   0  0  0  0  0  0
   29.5815    1.3503   53.4916 H   0  0  0  0  0  0
   28.1130    3.3598   53.4674 H   0  0  0  0  0  0
   25.6598    3.1218   53.3709 H   0  0  0  0  0  0
  1  2  1  0  0  0
  1  5  2  0  0  0
  2  3  2  0  0  0
  2 32  1  0  0  0
  3  4  1  0  0  0
  4  6  2  0  0  0
  4 23  1  0  0  0
  5  6  1  0  0  0
  5 10  1  0  0  0
  6  7  1  0  0  0
  7  8  2  0  0  0
  7 33  1  0  0  0
  8  9  1  0  0  0
  8 13  1  0  0  0
  9 10  2  0  0  0
  9 11  1  0  0  0
 10 34  1  0  0  0
 11 12  1  0  0  0
 12 35  1  0  0  0
 12 36  1  0  0  0
 12 37  1  0  0  0
 13 14  1  0  0  0
 14 15  1  0  0  0
 14 38  1  0  0  0
 14 39  1  0  0  0
 15 16  1  0  0  0
 15 40  1  0  0  0
 15 41  1  0  0  0
 16 17  1  0  0  0
 16 42  1  0  0  0
 16 43  1  0  0  0
 17 18  1  0  0  0
 17 22  1  0  0  0
 18 19  1  0  0  0
 18 44  1  0  0  0
 18 45  1  0  0  0
 19 20  1  0  0  0
 19 46  1  0  0  0
 19 47  1  0  0  0
 20 21  1  0  0  0
 21 22  1  0  0  0
 21 48  1  0  0  0
 21 49  1  0  0  0
 22 50  1  0  0  0
 22 51  1  0  0  0
 23 24  1  0  0  0
 23 52  1  0  0  0
 24 25  2  0  0  0
 24 29  1  0  0  0
 25 26  1  0  0  0
 25 31  1  0  0  0
 26 27  2  0  0  0
 26 30  1  0  0  0
 27 28  1  0  0  0
 27 53  1  0  0  0
 28 29  2  0  0  0
 28 54  1  0  0  0
 29 55  1  0  0  0
M  END
> <s_m_entry_id>
313

> <s_m_entry_name>
pocket_pv.124

> <s_m_Source_Path>
/home/bortolaa/Project/GT/mario-master/docking/set505protein_struct_1_site_1_set505ligs_train

> <s_m_Source_File>
pocket_pv.maegz

> <i_m_Source_File_Index>
124

> <From>
www.bindingDB.org

> <BindingDB Reactant_set_id>
50351574

> <Ligand InChI>
InChI=1S/C22H24ClFN4O3/c1-29-19-13-18-15(12-20(19)31-9-3-6-28-7-10-30-11-8-28)22(26-14-25-18)27-17-5-2-4-16(23)21(17)24/h2,4-5,12-14H,3,6-11H2,1H3,(H,25,26,27)

> <Ligand InChI Key>
BIFFYWVZRGCPLC-UHFFFAOYSA-N

> <BindingDB MonomerID>
50189992

> <BindingDB Ligand Name>
CHEMBL385479::N-(3-chloro-2-fluorophenyl)-7-methoxy-6-(3-morpholinopropoxy)quinazolin-4-amine

> <Target Name Assigned by Curator or DataSource>
Epidermal growth factor receptor

> <Target Source Organism According to Curator or DataSource>
Homo sapiens

> <Ki (nM)>


> <Kd (nM)>


> <EC50 (nM)>


> <kon (M-1-s-1)>


> <koff (s-1)>


> <pH>


> <Temp C>


> <Curation/DataSource>
ChEMBL

> <Article DOI>
10.1016/j.bmcl.2006.06.054

> <PubChem AID>


> <Patent Number>


> <Authors>
Ballard, P; Bradbury, RH; Harris, CS; Hennequin, LF; Hickinson, M; Kettle, JG; Kendrew, J; Klinowska, T; Ogilvie, DJ; Pearson, SE; Williams, EJ; Wilson, I

> <Institution>
AstraZeneca

> <Link to Ligand in BindingDB>
http://www.bindingdb.org/bind/chemsearch/marvin/MolStructure.jsp?monomerid=50189992

> <Link to Ligand-Target Pair in BindingDB>
http://www.bindingdb.org/jsp/dbsearch/PrimarySearch_ki.jsp?energyterm=kJ/mole&tag=r21&monomerid=50189992&enzyme=Epidermal+growth+factor+receptor&column=ki&startPg=0&Increment=50&submit=Search

> <Ligand HET ID in PDB>


> <PDB ID(s) for Ligand-Target Complex>


> <PubChem CID>
44416610

> <PubChem SID>
104073414

> <ChEBI ID of Ligand>


> <ChEMBL ID of Ligand>
CHEMBL385479

> <DrugBank ID of Ligand>


> <IUPHAR_GRAC ID of Ligand>


> <KEGG ID of Ligand>


> <ZINC ID of Ligand>
ZINC34800126

> <Number of Protein Chains in Target (>
1

> <BindingDB Target Chain Sequence>
MRPSGTAGAALLALLAALCPASRALEEKKVCQGTSNKLTQLGTFEDHFLSLQRMFNNCEVVLGNLEITYVQRNYDLSFLKTIQEVAGYVLIALNTVERIPLENLQIIRGNMYYENSYALAVLSNYDANKTGLKELPMRNLQEILHGAVRFSNNPALCNVESIQWRDIVSSDFLSNMSMDFQNHLGSCQKCDPSCPNGSCWGAGEENCQKLTKIICAQQCSGRCRGKSPSDCCHNQCAAGCTGPRESDCLVCRKFRDEATCKDTCPPLMLYNPTTYQMDVNPEGKYSFGATCVKKCPRNYVVTDHGSCVRACGADSYEMEEDGVRKCKKCEGPCRKVCNGIGIGEFKDSLSINATNIKHFKNCTSISGDLHILPVAFRGDSFTHTPPLDPQELDILKTVKEITGFLLIQAWPENRTDLHAFENLEIIRGRTKQHGQFSLAVVSLNITSLGLRSLKEISDGDVIISGNKNLCYANTINWKKLFGTSGQKTKIISNRGENSCKATGQVCHALCSPEGCWGPEPRDCVSCRNVSRGRECVDKCNLLEGEPREFVENSECIQCHPECLPQAMNITCTGRGPDNCIQCAHYIDGPHCVKTCPAGVMGENNTLVWKYADAGHVCHLCHPNCTYGCTGPGLEGCPTNGPKIPSIATGMVGALLLLLVVALGIGLFMRRRHIVRKRTLRRLLQERELVEPLTPSGEAPNQALLRILKETEFKKIKVLGSGAFGTVYKGLWIPEGEKVKIPVAIKELREATSPKANKEILDEAYVMASVDNPHVCRLLGICLTSTVQLITQLMPFGCLLDYVREHKDNIGSQYLLNWCVQIAKGMNYLEDRRLVHRDLAARNVLVKTPQHVKITDFGLAKLLGAEEKEYHAEGGKVPIKWMALESILHRIYTHQSDVWSYGVTVWELMTFGSKPYDGIPASEISSILEKGERLPQPPICTIDVYMIMVKCWMIDADSRPKFRELIIEFSKMARDPQRYLVIQGDERMHLPSPTDSNFYRALMDEEDMDDVVDADEYLIPQQGFFSSPSTSRTPLLSSLSATSNNSTVACIDRNGLQSCPIKEDSFLQRYSSDPTGALTEDSIDDTFLPVPEYINQSVPKRPAGSVQNPVYHNQPLNPAPSRDPHYQDPHSTAVGNPEYLNTVQPTCVNSTFDSPAHWAQKGSHQISLDNPDYQQDFFPKEAKPNGIFKGSTAENAEYLRVAPQSSEFIGA

> <PDB ID(s) of Target Chain>
1IVO,1M14,1M17,1MOX,1XKK,1Z9I,2GS2,2GS6,2ITW,2ITX,2ITY,2J5E,2J5F,2J6M,2RF9,2RGP,3B2V,3BEL,3GOP,3POZ,3QWQ,3VJO,3W2O,3W2P,3W2Q,3W2R,3W2S,3W32,3W33,4G5J,4I23,4JQ7,4JQ8,4JR3,4JRV,4KRO,4LI5,4RJ4,4RJ5,4RJ6,4RJ7,4RJ8,4TKS,4UIP,4UV7,4WKQ,4WRG,4ZAU,5C8K,5C8M,5C8N,5CAL,5CAN,5CAO,5CAP,5CAQ,5CAS,5CAU,5CAV,5EDP,5EDQ,5EDR,5EM5,5EM6,5EM7,5EM8,5FED,5GNK,5HCX,5HCY,5HCZ,5HIB,5HIC,5UGB,5WB7,5WB8,5Y25,6S89,6S8A

> <UniProt (SwissProt) Recommended Name of Target Chain>
Epidermal growth factor receptor

> <UniProt (SwissProt) Entry Name of Target Chain>
EGFR_HUMAN

> <UniProt (SwissProt) Primary ID of Target Chain>
P00533

> <UniProt (SwissProt) Secondary ID(s) of Target Chain>
O00688,O00732,P06268,Q14225,Q68GS5,Q92795,Q9BZS2,Q9GZX1,Q9H2C9,Q9H3C9,Q9UMD7,Q9UMD8,Q9UMG5

> <UniProt (SwissProt) Alternative ID(s) of Target Chain>


> <UniProt (TrEMBL) Submitted Name of Target Chain>


> <UniProt (TrEMBL) Entry Name of Target Chain>


> <UniProt (TrEMBL) Primary ID of Target Chain>


> <UniProt (TrEMBL) Secondary ID(s) of Target Chain>


> <UniProt (TrEMBL) Alternative ID(s) of Target Chain>


> <training label>
7.74473

> <i_lp_mmshare_version>
54117

> <s_epik_input>
W2NIXTFbY0hdW2NIXWMoQ2wpYyhGKWMxW05IXWMobltjSF1uMiljKGMyMylbY0hdYyhjKFtjSF0zKU9bQ0gzXSlPW0NIMl1bQ0gyXVtDSDJdTjRbQ0gyXVtDSDJdT1tDSDJdW0NIMl00

> <s_epik_cmdline>
J2VwaWtfcHl0aG9uJywgJy1waHQnLCAnMC4xJywgJy1waCcsICc3LjQnLCAnLXRuJywgJzgnLCAnLW1hJywgJzIwMCcsICctaW1hZScsICc8aW5maWxlLm1hZT4nLCAnLW9tYWUnLCAnPG91dGZpbGUubWFlPic=

> <r_lp_tautomer_probability>
0.999978000241998

> <r_epik_Ionization_Penalty>
  0.1968

> <r_epik_Ionization_Penalty_Charging>
  0.0000

> <r_epik_Ionization_Penalty_Neutral>
  0.1968

> <r_epik_State_Penalty>
  0.1860

> <r_epik_Charging_Adjusted_Penalty>
0.186024314191534

> <i_epik_Tot_Q>
0

> <i_epik_Tot_abs_Q>
0

> <i_f3d_flags>
0

> <s_lp_Force_Field>
OPLS_2005

> <r_lp_Energy>
37.02356

> <b_lp_Chiralities_Consistent>
1

> <s_lp_Variant>
BindingDB_50189992_mol_1-1

> <s_i_glide_gridfile>
struct_1_site_1

> <i_i_glide_lignum>
211

> <i_i_glide_rotatable_bonds>
8

> <r_i_docking_score>
-7.49487090204602

> <r_i_glide_ligand_efficiency>
-0.241770029098259

> <r_i_glide_ligand_efficiency_sa>
-0.759491690868012

> <r_i_glide_ligand_efficiency_ln>
-1.69032307861977

> <r_i_glide_gscore>
-7.68087090204602

> <r_i_glide_lipo>
-3.03894806446149

> <r_i_glide_hbond>
-0.32

> <r_i_glide_metal>
0

> <r_i_glide_rewards>
-1.90134765637958

> <r_i_glide_evdw>
-44.4437866210938

> <r_i_glide_ecoul>
-5.33220100402832

> <r_i_glide_erotb>
0.601444300453987

> <r_i_glide_esite>
0

> <r_i_glide_emodel>
-53.8668155820663

> <r_i_glide_energy>
-49.7759876251221

> <r_i_glide_einternal>
7.20471286773682

> <i_i_glide_confnum>
14

> <i_i_glide_posenum>
90

> <r_i_glide_eff_state_penalty>
0.186

> <IC50 (nM)>
18

> <PMID>
16806916

> <r_glide_shape_similarity>
0.803728401660919

> <s_m_subgroup_title>
505 training

> <s_m_subgroupid>
pocket_pv

> <b_m_subgroup_collapsed>
0

$$$$
BindingDB_3302_mol_1
                    3D
 Schrodinger Suite 2021-2.
 30 32  0  0  1  0            999 V2000
   21.5135    0.6438   52.4943 C   0  0  0  0  0  0
   19.9108   -1.2081   53.8398 C   0  0  0  0  0  0
   22.0741   -0.1667   53.5011 C   0  0  0  0  0  0
   21.2719   -1.1086   54.1799 C   0  0  0  0  0  0
   23.4365   -0.0930   53.8631 C   0  0  0  0  0  0
   23.0981   -1.7246   55.4050 C   0  0  0  0  0  0
   23.9375   -0.8818   54.8236 N   0  0  0  0  0  0
   21.8074   -1.8894   55.1339 N   0  0  0  0  0  0
   24.2901    0.8489   53.2760 N   0  0  0  0  0  0
   25.6852    0.9479   53.3435 C   0  0  0  0  0  0
   27.6712    2.3608   53.4225 C   0  0  0  0  0  0
   26.2748    2.2238   53.3714 C   0  0  0  0  0  0
   26.5175   -0.1874   53.3336 C   0  0  0  0  0  0
   28.4936    1.2260   53.4363 C   0  0  0  0  0  0
   27.9137   -0.0476   53.3814 C   0  0  0  0  0  0
   29.0188   -1.5865   53.3746 Br  0  0  0  0  0  0
   20.1599    0.5243   52.1519 C   0  0  0  0  0  0
   19.3469   -0.3921   52.8412 C   0  0  0  0  0  0
   19.6523    1.3003   51.1521 O   0  0  0  0  0  0
   18.0192   -0.4900   52.5471 O   0  0  0  0  0  0
   23.8223    1.6260   52.8408 H   0  0  0  0  0  0
   22.1228    1.3487   51.9481 H   0  0  0  0  0  0
   19.2966   -1.9136   54.3790 H   0  0  0  0  0  0
   23.5061   -2.3635   56.1712 H   0  0  0  0  0  0
   28.1103    3.3475   53.4508 H   0  0  0  0  0  0
   25.6632    3.1146   53.3625 H   0  0  0  0  0  0
   26.0898   -1.1796   53.2861 H   0  0  0  0  0  0
   29.5687    1.3318   53.4802 H   0  0  0  0  0  0
   20.3006    1.7938   50.6749 H   0  0  0  0  0  0
   17.5416   -1.0578   53.1257 H   0  0  0  0  0  0
  1  3  1  0  0  0
  1 17  2  0  0  0
  1 22  1  0  0  0
  2  4  1  0  0  0
  2 18  2  0  0  0
  2 23  1  0  0  0
  3  4  1  0  0  0
  3  5  2  0  0  0
  4  8  2  0  0  0
  5  7  1  0  0  0
  5  9  1  0  0  0
  6  7  2  0  0  0
  6  8  1  0  0  0
  6 24  1  0  0  0
  9 10  1  0  0  0
  9 21  1  0  0  0
 10 12  2  0  0  0
 10 13  1  0  0  0
 11 12  1  0  0  0
 11 14  2  0  0  0
 11 25  1  0  0  0
 12 26  1  0  0  0
 13 15  2  0  0  0
 13 27  1  0  0  0
 14 15  1  0  0  0
 14 28  1  0  0  0
 15 16  1  0  0  0
 17 18  1  0  0  0
 17 19  1  0  0  0
 18 20  1  0  0  0
 19 29  1  0  0  0
 20 30  1  0  0  0
M  END
> <s_m_entry_id>
314

> <s_m_entry_name>
pocket_pv.125

> <s_m_Source_Path>
/home/bortolaa/Project/GT/mario-master/docking/set505protein_struct_1_site_1_set505ligs_train

> <s_m_Source_File>
pocket_pv.maegz

> <i_m_Source_File_Index>
125

> <From>
www.bindingDB.org

> <BindingDB Reactant_set_id>
50210561

> <Ligand InChI>
InChI=1S/C14H10BrN3O2/c15-8-2-1-3-9(4-8)18-14-10-5-12(19)13(20)6-11(10)16-7-17-14/h1-7,19-20H,(H,16,17,18)

> <Ligand InChI Key>
CZMCXMIIVHUIPE-UHFFFAOYSA-N

> <BindingDB MonomerID>
3302

> <BindingDB Ligand Name>
4-Anilinoquinazoline deriv. 53::4-[(3-bromophenyl)amino]quinazoline-6,7-diol::44 (3-Bromophenyl)amino]-6,7-dihydroxyquinazoline::CHEMBL93032

> <Target Name Assigned by Curator or DataSource>
Epidermal growth factor receptor

> <Target Source Organism According to Curator or DataSource>
Homo sapiens

> <Ki (nM)>


> <Kd (nM)>


> <EC50 (nM)>


> <kon (M-1-s-1)>


> <koff (s-1)>


> <pH>


> <Temp C>


> <Curation/DataSource>
ChEMBL

> <Article DOI>
10.1021/jm070654j

> <PubChem AID>


> <Patent Number>


> <Authors>
Kolb, P; Huang, D; Dey, F; Caflisch, A

> <Institution>
University of Zurich

> <Link to Ligand in BindingDB>
http://www.bindingdb.org/bind/chemsearch/marvin/MolStructure.jsp?monomerid=3302

> <Link to Ligand-Target Pair in BindingDB>
http://www.bindingdb.org/jsp/dbsearch/PrimarySearch_ki.jsp?energyterm=kJ/mole&tag=r21&monomerid=3302&enzyme=Epidermal+growth+factor+receptor&column=ki&startPg=0&Increment=50&submit=Search

> <Ligand HET ID in PDB>


> <PDB ID(s) for Ligand-Target Complex>


> <PubChem CID>
5328050

> <PubChem SID>
8033044

> <ChEBI ID of Ligand>


> <ChEMBL ID of Ligand>
CHEMBL93032

> <DrugBank ID of Ligand>


> <IUPHAR_GRAC ID of Ligand>


> <KEGG ID of Ligand>


> <ZINC ID of Ligand>
ZINC03815038

> <Number of Protein Chains in Target (>
1

> <BindingDB Target Chain Sequence>
MRPSGTAGAALLALLAALCPASRALEEKKVCQGTSNKLTQLGTFEDHFLSLQRMFNNCEVVLGNLEITYVQRNYDLSFLKTIQEVAGYVLIALNTVERIPLENLQIIRGNMYYENSYALAVLSNYDANKTGLKELPMRNLQEILHGAVRFSNNPALCNVESIQWRDIVSSDFLSNMSMDFQNHLGSCQKCDPSCPNGSCWGAGEENCQKLTKIICAQQCSGRCRGKSPSDCCHNQCAAGCTGPRESDCLVCRKFRDEATCKDTCPPLMLYNPTTYQMDVNPEGKYSFGATCVKKCPRNYVVTDHGSCVRACGADSYEMEEDGVRKCKKCEGPCRKVCNGIGIGEFKDSLSINATNIKHFKNCTSISGDLHILPVAFRGDSFTHTPPLDPQELDILKTVKEITGFLLIQAWPENRTDLHAFENLEIIRGRTKQHGQFSLAVVSLNITSLGLRSLKEISDGDVIISGNKNLCYANTINWKKLFGTSGQKTKIISNRGENSCKATGQVCHALCSPEGCWGPEPRDCVSCRNVSRGRECVDKCNLLEGEPREFVENSECIQCHPECLPQAMNITCTGRGPDNCIQCAHYIDGPHCVKTCPAGVMGENNTLVWKYADAGHVCHLCHPNCTYGCTGPGLEGCPTNGPKIPSIATGMVGALLLLLVVALGIGLFMRRRHIVRKRTLRRLLQERELVEPLTPSGEAPNQALLRILKETEFKKIKVLGSGAFGTVYKGLWIPEGEKVKIPVAIKELREATSPKANKEILDEAYVMASVDNPHVCRLLGICLTSTVQLITQLMPFGCLLDYVREHKDNIGSQYLLNWCVQIAKGMNYLEDRRLVHRDLAARNVLVKTPQHVKITDFGLAKLLGAEEKEYHAEGGKVPIKWMALESILHRIYTHQSDVWSYGVTVWELMTFGSKPYDGIPASEISSILEKGERLPQPPICTIDVYMIMVKCWMIDADSRPKFRELIIEFSKMARDPQRYLVIQGDERMHLPSPTDSNFYRALMDEEDMDDVVDADEYLIPQQGFFSSPSTSRTPLLSSLSATSNNSTVACIDRNGLQSCPIKEDSFLQRYSSDPTGALTEDSIDDTFLPVPEYINQSVPKRPAGSVQNPVYHNQPLNPAPSRDPHYQDPHSTAVGNPEYLNTVQPTCVNSTFDSPAHWAQKGSHQISLDNPDYQQDFFPKEAKPNGIFKGSTAENAEYLRVAPQSSEFIGA

> <PDB ID(s) of Target Chain>
1IVO,1M14,1M17,1MOX,1XKK,1Z9I,2GS2,2GS6,2ITW,2ITX,2ITY,2J5E,2J5F,2J6M,2RF9,2RGP,3B2V,3BEL,3GOP,3POZ,3QWQ,3VJO,3W2O,3W2P,3W2Q,3W2R,3W2S,3W32,3W33,4G5J,4I23,4JQ7,4JQ8,4JR3,4JRV,4KRO,4LI5,4RJ4,4RJ5,4RJ6,4RJ7,4RJ8,4TKS,4UIP,4UV7,4WKQ,4WRG,4ZAU,5C8K,5C8M,5C8N,5CAL,5CAN,5CAO,5CAP,5CAQ,5CAS,5CAU,5CAV,5EDP,5EDQ,5EDR,5EM5,5EM6,5EM7,5EM8,5FED,5GNK,5HCX,5HCY,5HCZ,5HIB,5HIC,5UGB,5WB7,5WB8,5Y25,6S89,6S8A

> <UniProt (SwissProt) Recommended Name of Target Chain>
Epidermal growth factor receptor

> <UniProt (SwissProt) Entry Name of Target Chain>
EGFR_HUMAN

> <UniProt (SwissProt) Primary ID of Target Chain>
P00533

> <UniProt (SwissProt) Secondary ID(s) of Target Chain>
O00688,O00732,P06268,Q14225,Q68GS5,Q92795,Q9BZS2,Q9GZX1,Q9H2C9,Q9H3C9,Q9UMD7,Q9UMD8,Q9UMG5

> <UniProt (SwissProt) Alternative ID(s) of Target Chain>


> <UniProt (TrEMBL) Submitted Name of Target Chain>


> <UniProt (TrEMBL) Entry Name of Target Chain>


> <UniProt (TrEMBL) Primary ID of Target Chain>


> <UniProt (TrEMBL) Secondary ID(s) of Target Chain>


> <UniProt (TrEMBL) Alternative ID(s) of Target Chain>


> <training label>
9.76

> <i_lp_mmshare_version>
54117

> <s_epik_input>
W2NIXTFjKFtPSF0pYyhbT0hdKVtjSF1jKGMxMiluW2NIXW5jMltOSF1jM1tjSF1bY0hdW2NIXWMoQnIpW2NIXTM=

> <s_epik_cmdline>
J2VwaWtfcHl0aG9uJywgJy1waHQnLCAnMC4xJywgJy1waCcsICc3LjQnLCAnLXRuJywgJzgnLCAnLW1hJywgJzIwMCcsICctaW1hZScsICc8aW5maWxlLm1hZT4nLCAnLW9tYWUnLCAnPG91dGZpbGUubWFlPic=

> <r_epik_Ionization_Penalty>
  0.1225

> <r_epik_Ionization_Penalty_Charging>
  0.0000

> <r_epik_Ionization_Penalty_Neutral>
  0.1225

> <r_epik_State_Penalty>
  0.0953

> <r_epik_Charging_Adjusted_Penalty>
0.0953131945575778

> <i_epik_Tot_Q>
0

> <i_epik_Tot_abs_Q>
0

> <i_f3d_flags>
0

> <s_lp_Force_Field>
OPLS_2005

> <r_lp_Energy>
11.544728

> <b_lp_Chiralities_Consistent>
1

> <s_lp_Variant>
BindingDB_3302_mol_1-1

> <s_i_glide_gridfile>
struct_1_site_1

> <i_i_glide_lignum>
290

> <i_i_glide_rotatable_bonds>
4

> <r_i_docking_score>
-7.4898855635981

> <r_i_glide_ligand_efficiency>
-0.374494278179905

> <r_i_glide_ligand_efficiency_sa>
-1.01653386499044

> <r_i_glide_ligand_efficiency_ln>
-1.87447132360954

> <r_i_glide_gscore>
-7.5851855635981

> <r_i_glide_lipo>
-2.63123445136941

> <r_i_glide_hbond>
-0.32

> <r_i_glide_metal>
0

> <r_i_glide_rewards>
-2.31545001826245

> <r_i_glide_evdw>
-37.7413635253906

> <r_i_glide_ecoul>
-5.15200424194336

> <r_i_glide_erotb>
0.3413677185948

> <r_i_glide_esite>
0

> <r_i_glide_emodel>
-40.4241022760248

> <r_i_glide_energy>
-42.893367767334

> <r_i_glide_einternal>
1.30214154720306

> <i_i_glide_confnum>
4

> <i_i_glide_posenum>
218

> <r_i_glide_eff_state_penalty>
0.0953

> <IC50 (nM)>
0.17378

> <PMID>
18271520

> <r_glide_shape_similarity>
0.766587972640991

> <s_m_subgroup_title>
505 training

> <s_m_subgroupid>
pocket_pv

> <b_m_subgroup_collapsed>
0

$$$$
BindingDB_50307768_mol_1
                    3D
 Schrodinger Suite 2021-2.
 58 60  0  0  1  0            999 V2000
   20.0768    0.4860   52.1683 C   0  0  0  0  0  0
   19.2856   -0.4464   52.8693 C   0  0  0  0  0  0
   19.8778   -1.2528   53.8694 C   0  0  0  0  0  0
   21.4576    0.6164   52.4822 C   0  0  0  0  0  0
   22.0349   -0.1935   53.5005 C   0  0  0  0  0  0
   21.2432   -1.1395   54.1948 C   0  0  0  0  0  0
   21.7831   -1.9159   55.1606 N   0  0  0  0  0  0
   23.0778   -1.7652   55.4345 C   0  0  0  0  0  0
   23.9100   -0.9207   54.8514 N   0  0  0  0  0  0
   23.3943   -0.1315   53.8937 C   0  0  0  0  0  0
   19.3792    1.2195   51.2295 O   0  0  0  0  0  0
   17.9449   -0.4858   52.5263 O   0  0  0  0  0  0
   17.0433   -1.2138   53.3477 C   0  0  0  0  0  0
   24.2226    0.8200   53.3298 N   0  0  0  0  0  0
   25.6040    0.9813   53.3690 C   0  0  0  0  0  0
   25.9785    2.1155   52.6649 C   0  0  0  0  0  0
   27.3130    2.3226   52.3488 C   0  0  0  0  0  0
   28.3284    1.5511   52.9750 C   0  0  0  0  0  0
   27.9586    0.4303   53.7515 C   0  0  0  0  0  0
   26.5898    0.1146   53.9123 C   0  0  0  0  0  0
   19.9888    2.2787   50.5217 C   0  0  0  0  0  0
   20.5757    1.7537   49.2046 C   0  0  0  0  0  0
   21.2652    2.8740   48.4054 C   0  0  0  0  0  0
   22.6392    3.2920   48.9939 C   0  0  0  0  0  0
   23.0001    4.7728   48.7343 C   0  0  0  0  0  0
   24.3496    5.1887   49.3747 C   0  0  0  0  0  0
   24.5211    6.7186   49.4928 C   0  0  0  0  0  0
   25.0049    7.1873   50.6647 N   0  0  0  0  0  0
   24.1753    7.4482   48.5546 O   0  0  0  0  0  0
   24.6893    8.5423   50.9746 O   0  0  0  0  0  0
   27.4888    3.1341   51.1561 C   0  0  0  0  0  0
   27.4864    3.7448   50.0936 C   0  0  0  0  0  0
   19.2866   -1.9648   54.4235 H   0  0  0  0  0  0
   22.0678    1.3225   51.9413 H   0  0  0  0  0  0
   23.4921   -2.4104   56.1940 H   0  0  0  0  0  0
   16.0227   -1.0516   53.0024 H   0  0  0  0  0  0
   17.2470   -2.2851   53.2976 H   0  0  0  0  0  0
   17.0941   -0.8880   54.3880 H   0  0  0  0  0  0
   23.7410    1.5133   52.7795 H   0  0  0  0  0  0
   25.2240    2.7308   52.1917 H   0  0  0  0  0  0
   29.3730    1.7244   52.7543 H   0  0  0  0  0  0
   28.7195   -0.2137   54.1689 H   0  0  0  0  0  0
   26.3292   -0.7869   54.4397 H   0  0  0  0  0  0
   19.2082    3.0054   50.2949 H   0  0  0  0  0  0
   20.7124    2.8143   51.1348 H   0  0  0  0  0  0
   21.2804    0.9424   49.3941 H   0  0  0  0  0  0
   19.7714    1.3251   48.6053 H   0  0  0  0  0  0
   21.4110    2.5474   47.3753 H   0  0  0  0  0  0
   20.5958    3.7340   48.3556 H   0  0  0  0  0  0
   22.6490    3.1309   50.0710 H   0  0  0  0  0  0
   23.4197    2.6408   48.5971 H   0  0  0  0  0  0
   23.0278    4.9644   47.6618 H   0  0  0  0  0  0
   22.2047    5.4007   49.1375 H   0  0  0  0  0  0
   24.4319    4.7544   50.3733 H   0  0  0  0  0  0
   25.1725    4.7838   48.7843 H   0  0  0  0  0  0
   25.2458    6.6649   51.5054 H   0  0  0  0  0  0
   25.1048    8.6827   51.8288 H   0  0  0  0  0  0
   27.4854    4.3085   49.1874 H   0  0  0  0  0  0
  1  2  2  0  0  0
  1  4  1  0  0  0
  1 11  1  0  0  0
  2  3  1  0  0  0
  2 12  1  0  0  0
  3  6  2  0  0  0
  3 33  1  0  0  0
  4  5  2  0  0  0
  4 34  1  0  0  0
  5  6  1  0  0  0
  5 10  1  0  0  0
  6  7  1  0  0  0
  7  8  2  0  0  0
  8  9  1  0  0  0
  8 35  1  0  0  0
  9 10  2  0  0  0
 10 14  1  0  0  0
 11 21  1  0  0  0
 12 13  1  0  0  0
 13 36  1  0  0  0
 13 37  1  0  0  0
 13 38  1  0  0  0
 14 15  1  0  0  0
 14 39  1  0  0  0
 15 16  2  0  0  0
 15 20  1  0  0  0
 16 17  1  0  0  0
 16 40  1  0  0  0
 17 18  2  0  0  0
 17 31  1  0  0  0
 18 19  1  0  0  0
 18 41  1  0  0  0
 19 20  2  0  0  0
 19 42  1  0  0  0
 20 43  1  0  0  0
 21 22  1  0  0  0
 21 44  1  0  0  0
 21 45  1  0  0  0
 22 23  1  0  0  0
 22 46  1  0  0  0
 22 47  1  0  0  0
 23 24  1  0  0  0
 23 48  1  0  0  0
 23 49  1  0  0  0
 24 25  1  0  0  0
 24 50  1  0  0  0
 24 51  1  0  0  0
 25 26  1  0  0  0
 25 52  1  0  0  0
 25 53  1  0  0  0
 26 27  1  0  0  0
 26 54  1  0  0  0
 26 55  1  0  0  0
 27 28  1  0  0  0
 27 29  2  0  0  0
 28 30  1  0  0  0
 28 56  1  0  0  0
 30 57  1  0  0  0
 31 32  3  0  0  0
 32 58  1  0  0  0
M  END
> <s_m_entry_id>
315

> <s_m_entry_name>
pocket_pv.126

> <s_m_Source_Path>
/home/bortolaa/Project/GT/mario-master/docking/set505protein_struct_1_site_1_set505ligs_train

> <s_m_Source_File>
pocket_pv.maegz

> <i_m_Source_File_Index>
126

> <From>
www.bindingDB.org

> <BindingDB Reactant_set_id>
50535336

> <Ligand InChI>
InChI=1S/C24H26N4O4/c1-3-17-9-8-10-18(13-17)27-24-19-14-22(21(31-2)15-20(19)25-16-26-24)32-12-7-5-4-6-11-23(29)28-30/h1,8-10,13-16,30H,4-7,11-12H2,2H3,(H,28,29)(H,25,26,27)

> <Ligand InChI Key>
PLIVFNIUGLLCEK-UHFFFAOYSA-N

> <BindingDB MonomerID>
50307768

> <BindingDB Ligand Name>
7-(4-(3-Ethynylphenylamino)-7-methoxyquinazolin-6-yloxy)-N-hydroxyheptanamide::CHEMBL598797::CUDC-101

> <Target Name Assigned by Curator or DataSource>
Epidermal growth factor receptor

> <Target Source Organism According to Curator or DataSource>
Homo sapiens

> <Ki (nM)>


> <Kd (nM)>


> <EC50 (nM)>


> <kon (M-1-s-1)>


> <koff (s-1)>


> <pH>


> <Temp C>


> <Curation/DataSource>
ChEMBL

> <Article DOI>
10.1016/j.bmc.2016.10.006

> <PubChem AID>


> <Patent Number>


> <Authors>
Ding, C; Chen, S; Zhang, C; Hu, G; Zhang, W; Li, L; Chen, YZ; Tan, C; Jiang, Y

> <Institution>
Tsinghua University

> <Link to Ligand in BindingDB>
http://www.bindingdb.org/bind/chemsearch/marvin/MolStructure.jsp?monomerid=50307768

> <Link to Ligand-Target Pair in BindingDB>
http://www.bindingdb.org/jsp/dbsearch/PrimarySearch_ki.jsp?energyterm=kJ/mole&tag=r21&monomerid=50307768&enzyme=Epidermal+growth+factor+receptor&column=ki&startPg=0&Increment=50&submit=Search

> <Ligand HET ID in PDB>


> <PDB ID(s) for Ligand-Target Complex>


> <PubChem CID>
24756910

> <PubChem SID>
104162129

> <ChEBI ID of Ligand>


> <ChEMBL ID of Ligand>
CHEMBL598797

> <DrugBank ID of Ligand>


> <IUPHAR_GRAC ID of Ligand>


> <KEGG ID of Ligand>


> <ZINC ID of Ligand>
ZINC43196377

> <Number of Protein Chains in Target (>
1

> <BindingDB Target Chain Sequence>
MRPSGTAGAALLALLAALCPASRALEEKKVCQGTSNKLTQLGTFEDHFLSLQRMFNNCEVVLGNLEITYVQRNYDLSFLKTIQEVAGYVLIALNTVERIPLENLQIIRGNMYYENSYALAVLSNYDANKTGLKELPMRNLQEILHGAVRFSNNPALCNVESIQWRDIVSSDFLSNMSMDFQNHLGSCQKCDPSCPNGSCWGAGEENCQKLTKIICAQQCSGRCRGKSPSDCCHNQCAAGCTGPRESDCLVCRKFRDEATCKDTCPPLMLYNPTTYQMDVNPEGKYSFGATCVKKCPRNYVVTDHGSCVRACGADSYEMEEDGVRKCKKCEGPCRKVCNGIGIGEFKDSLSINATNIKHFKNCTSISGDLHILPVAFRGDSFTHTPPLDPQELDILKTVKEITGFLLIQAWPENRTDLHAFENLEIIRGRTKQHGQFSLAVVSLNITSLGLRSLKEISDGDVIISGNKNLCYANTINWKKLFGTSGQKTKIISNRGENSCKATGQVCHALCSPEGCWGPEPRDCVSCRNVSRGRECVDKCNLLEGEPREFVENSECIQCHPECLPQAMNITCTGRGPDNCIQCAHYIDGPHCVKTCPAGVMGENNTLVWKYADAGHVCHLCHPNCTYGCTGPGLEGCPTNGPKIPSIATGMVGALLLLLVVALGIGLFMRRRHIVRKRTLRRLLQERELVEPLTPSGEAPNQALLRILKETEFKKIKVLGSGAFGTVYKGLWIPEGEKVKIPVAIKELREATSPKANKEILDEAYVMASVDNPHVCRLLGICLTSTVQLITQLMPFGCLLDYVREHKDNIGSQYLLNWCVQIAKGMNYLEDRRLVHRDLAARNVLVKTPQHVKITDFGLAKLLGAEEKEYHAEGGKVPIKWMALESILHRIYTHQSDVWSYGVTVWELMTFGSKPYDGIPASEISSILEKGERLPQPPICTIDVYMIMVKCWMIDADSRPKFRELIIEFSKMARDPQRYLVIQGDERMHLPSPTDSNFYRALMDEEDMDDVVDADEYLIPQQGFFSSPSTSRTPLLSSLSATSNNSTVACIDRNGLQSCPIKEDSFLQRYSSDPTGALTEDSIDDTFLPVPEYINQSVPKRPAGSVQNPVYHNQPLNPAPSRDPHYQDPHSTAVGNPEYLNTVQPTCVNSTFDSPAHWAQKGSHQISLDNPDYQQDFFPKEAKPNGIFKGSTAENAEYLRVAPQSSEFIGA

> <PDB ID(s) of Target Chain>
1IVO,1M14,1M17,1MOX,1XKK,1Z9I,2GS2,2GS6,2ITW,2ITX,2ITY,2J5E,2J5F,2J6M,2RF9,2RGP,3B2V,3BEL,3GOP,3POZ,3QWQ,3VJO,3W2O,3W2P,3W2Q,3W2R,3W2S,3W32,3W33,4G5J,4I23,4JQ7,4JQ8,4JR3,4JRV,4KRO,4LI5,4RJ4,4RJ5,4RJ6,4RJ7,4RJ8,4TKS,4UIP,4UV7,4WKQ,4WRG,4ZAU,5C8K,5C8M,5C8N,5CAL,5CAN,5CAO,5CAP,5CAQ,5CAS,5CAU,5CAV,5EDP,5EDQ,5EDR,5EM5,5EM6,5EM7,5EM8,5FED,5GNK,5HCX,5HCY,5HCZ,5HIB,5HIC,5UGB,5WB7,5WB8,5Y25,6S89,6S8A

> <UniProt (SwissProt) Recommended Name of Target Chain>
Epidermal growth factor receptor

> <UniProt (SwissProt) Entry Name of Target Chain>
EGFR_HUMAN

> <UniProt (SwissProt) Primary ID of Target Chain>
P00533

> <UniProt (SwissProt) Secondary ID(s) of Target Chain>
O00688,O00732,P06268,Q14225,Q68GS5,Q92795,Q9BZS2,Q9GZX1,Q9H2C9,Q9H3C9,Q9UMD7,Q9UMD8,Q9UMG5

> <UniProt (SwissProt) Alternative ID(s) of Target Chain>


> <UniProt (TrEMBL) Submitted Name of Target Chain>


> <UniProt (TrEMBL) Entry Name of Target Chain>


> <UniProt (TrEMBL) Primary ID of Target Chain>


> <UniProt (TrEMBL) Secondary ID(s) of Target Chain>


> <UniProt (TrEMBL) Alternative ID(s) of Target Chain>


> <training label>
8.61979

> <i_lp_mmshare_version>
54117

> <s_epik_input>
W09IXVtOSF1DKD1PKVtDSDJdW0NIMl1bQ0gyXVtDSDJdW0NIMl1bQ0gyXU9jKFtjSF0xKWMoT1tDSDNdKVtjSF1jKGMxMiluW2NIXW5jMltOSF1jM1tjSF1jKEMjW0NIXSlbY0hdW2NIXVtjSF0z

> <s_epik_cmdline>
J2VwaWtfcHl0aG9uJywgJy1waHQnLCAnMC4xJywgJy1waCcsICc3LjQnLCAnLXRuJywgJzgnLCAnLW1hJywgJzIwMCcsICctaW1hZScsICc8aW5maWxlLm1hZT4nLCAnLW9tYWUnLCAnPG91dGZpbGUubWFlPic=

> <r_lp_tautomer_probability>
1

> <r_epik_Ionization_Penalty>
  0.0093

> <r_epik_Ionization_Penalty_Charging>
  0.0000

> <r_epik_Ionization_Penalty_Neutral>
  0.0093

> <r_epik_State_Penalty>
  0.0000

> <r_epik_Charging_Adjusted_Penalty>
0

> <i_epik_Tot_Q>
0

> <i_epik_Tot_abs_Q>
0

> <i_f3d_flags>
0

> <s_lp_Force_Field>
OPLS_2005

> <r_lp_Energy>
24.978354

> <b_lp_Chiralities_Consistent>
1

> <s_lp_Variant>
BindingDB_50307768_mol_1-1

> <s_i_glide_gridfile>
struct_1_site_1

> <i_i_glide_lignum>
269

> <i_i_glide_rotatable_bonds>
14

> <r_i_docking_score>
-7.47963145591201

> <r_i_glide_ligand_efficiency>
-0.23373848299725

> <r_i_glide_ligand_efficiency_sa>
-0.742073426733295

> <r_i_glide_ligand_efficiency_ln>
-1.67489337003175

> <r_i_glide_gscore>
-7.47963145591201

> <r_i_glide_lipo>
-2.63774113027198

> <r_i_glide_hbond>
-0.323096408097237

> <r_i_glide_metal>
0

> <r_i_glide_rewards>
-1.57056169594878

> <r_i_glide_evdw>
-39.8080635070801

> <r_i_glide_ecoul>
-14.1648445129395

> <r_i_glide_erotb>
1.26599571966862

> <r_i_glide_esite>
-0.0990980889677036

> <r_i_glide_emodel>
-45.7805698376989

> <r_i_glide_energy>
-53.9729080200195

> <r_i_glide_einternal>
6.46581172943115

> <i_i_glide_confnum>
940

> <i_i_glide_posenum>
294

> <r_i_glide_eff_state_penalty>
0

> <IC50 (nM)>
2.4

> <PMID>
27769671

> <s_epik_Chemistry_Notes>
This compound has a N-S or N-O group and may undergo hydrolysis at high or low pH.

> <r_glide_shape_similarity>
0.67873752117157

> <s_m_subgroup_title>
505 training

> <s_m_subgroupid>
pocket_pv

> <b_m_subgroup_collapsed>
0

$$$$
BindingDB_50189999_mol_1
                    3D
 Schrodinger Suite 2021-2.
 52 55  0  0  1  0            999 V2000
   21.8002   -1.9092   55.1471 N   0  0  0  0  0  0
   23.0985   -1.7587   55.4196 C   0  0  0  0  0  0
   23.9429   -0.9075   54.8368 N   0  0  0  0  0  0
   23.4395   -0.1036   53.8733 C   0  0  0  0  0  0
   21.2613   -1.1201   54.1863 C   0  0  0  0  0  0
   22.0701   -0.1702   53.5069 C   0  0  0  0  0  0
   21.5137    0.6519   52.4986 C   0  0  0  0  0  0
   20.1514    0.5276   52.1356 C   0  0  0  0  0  0
   19.3207   -0.3857   52.8331 C   0  0  0  0  0  0
   19.8918   -1.2094   53.8450 C   0  0  0  0  0  0
   17.9865   -0.4055   52.4558 O   0  0  0  0  0  0
   19.5680    1.2472   51.1090 O   0  0  0  0  0  0
   20.3829    1.8785   50.1099 C   0  0  1  0  0  0
   24.2892    0.8394   53.2690 N   0  0  0  0  0  0
   25.6894    0.9357   53.3395 C   0  0  0  0  0  0
   26.5262   -0.2066   53.3365 C   0  0  0  0  0  0
   27.9320   -0.0624   53.3837 C   0  0  0  0  0  0
   28.5093    1.2271   53.4408 C   0  0  0  0  0  0
   27.6801    2.3691   53.4272 C   0  0  0  0  0  0
   26.2748    2.2233   53.3672 C   0  0  0  0  0  0
   28.9478   -1.4621   53.3757 Cl  0  0  0  0  0  0
   17.0531   -1.1312   53.2448 C   0  0  0  0  0  0
   19.6489    1.7665   48.7641 C   0  0  0  0  0  0
   18.3015    2.5179   48.7595 C   0  0  0  0  0  0
   18.5014    3.9573   49.1061 N   0  3  2  0  0  0
   19.2152    4.1368   50.4143 C   0  0  0  0  0  0
   20.5704    3.3745   50.4548 C   0  0  0  0  0  0
   17.2370    4.7469   49.0341 C   0  0  0  0  0  0
   25.4682    3.3130   53.3433 F   0  0  0  0  0  0
   23.5088   -2.4036   56.1840 H   0  0  0  0  0  0
   22.1404    1.3632   51.9877 H   0  0  0  0  0  0
   19.2853   -1.9164   54.3871 H   0  0  0  0  0  0
   21.3380    1.3706   49.9861 H   0  0  0  0  0  0
   23.8267    1.6288   52.8317 H   0  0  0  0  0  0
   26.0957   -1.1952   53.2925 H   0  0  0  0  0  0
   29.5847    1.3444   53.4899 H   0  0  0  0  0  0
   28.1121    3.3576   53.4647 H   0  0  0  0  0  0
   16.0399   -0.9158   52.9026 H   0  0  0  0  0  0
   17.2233   -2.2026   53.1450 H   0  0  0  0  0  0
   17.1164   -0.8606   54.2977 H   0  0  0  0  0  0
   19.4757    0.7198   48.5750 H   0  0  0  0  0  0
   20.2836    2.1322   47.9551 H   0  0  0  0  0  0
   17.6085    2.0599   49.4672 H   0  0  0  0  0  0
   17.8504    2.4328   47.7726 H   0  0  0  0  0  0
   18.5713    3.7885   51.2233 H   0  0  0  0  0  0
   19.3859    5.2022   50.5858 H   0  0  0  0  0  0
   21.2564    3.8253   49.7354 H   0  0  0  0  0  0
   21.0298    3.4818   51.4381 H   0  0  0  0  0  0
   16.5125    4.4018   49.7691 H   0  0  0  0  0  0
   17.4286    5.8077   49.2124 H   0  0  0  0  0  0
   16.7836    4.6568   48.0499 H   0  0  0  0  0  0
   19.1149    4.3320   48.3864 H   0  0  0  0  0  0
  1  2  1  0  0  0
  1  5  2  0  0  0
  2  3  2  0  0  0
  2 30  1  0  0  0
  3  4  1  0  0  0
  4  6  2  0  0  0
  4 14  1  0  0  0
  5  6  1  0  0  0
  5 10  1  0  0  0
  6  7  1  0  0  0
  7  8  2  0  0  0
  7 31  1  0  0  0
  8  9  1  0  0  0
  8 12  1  0  0  0
  9 10  2  0  0  0
  9 11  1  0  0  0
 10 32  1  0  0  0
 11 22  1  0  0  0
 12 13  1  0  0  0
 13 23  1  0  0  0
 13 27  1  0  0  0
 13 33  1  0  0  0
 14 15  1  0  0  0
 14 34  1  0  0  0
 15 16  2  0  0  0
 15 20  1  0  0  0
 16 17  1  0  0  0
 16 35  1  0  0  0
 17 18  2  0  0  0
 17 21  1  0  0  0
 18 19  1  0  0  0
 18 36  1  0  0  0
 19 20  2  0  0  0
 19 37  1  0  0  0
 20 29  1  0  0  0
 22 38  1  0  0  0
 22 39  1  0  0  0
 22 40  1  0  0  0
 23 24  1  0  0  0
 23 41  1  0  0  0
 23 42  1  0  0  0
 24 25  1  0  0  0
 24 43  1  0  0  0
 24 44  1  0  0  0
 25 26  1  0  0  0
 25 28  1  0  0  0
 25 52  1  0  0  0
 26 27  1  0  0  0
 26 45  1  0  0  0
 26 46  1  0  0  0
 27 47  1  0  0  0
 27 48  1  0  0  0
 28 49  1  0  0  0
 28 50  1  0  0  0
 28 51  1  0  0  0
M  CHG  1  25   1
M  END
> <s_m_entry_id>
316

> <s_m_entry_name>
pocket_pv.127

> <s_m_Source_Path>
/home/bortolaa/Project/GT/mario-master/docking/set505protein_struct_1_site_1_set505ligs_train

> <s_m_Source_File>
pocket_pv.maegz

> <i_m_Source_File_Index>
127

> <From>
www.bindingDB.org

> <BindingDB Reactant_set_id>
50351572

> <Ligand InChI>
InChI=1S/C21H22ClFN4O2/c1-27-7-5-14(6-8-27)29-20-10-15-17(11-19(20)28-2)24-12-25-21(15)26-18-9-13(22)3-4-16(18)23/h3-4,9-12,14H,5-8H2,1-2H3,(H,24,25,26)

> <Ligand InChI Key>
VDAKPUKXYCLOOX-UHFFFAOYSA-N

> <BindingDB MonomerID>
50189999

> <BindingDB Ligand Name>
CHEMBL214631::N-(5-chloro-2-fluorophenyl)-7-methoxy-6-(1-methylpiperidin-4-yloxy)quinazolin-4-amine

> <Target Name Assigned by Curator or DataSource>
Epidermal growth factor receptor

> <Target Source Organism According to Curator or DataSource>
Homo sapiens

> <Ki (nM)>


> <Kd (nM)>


> <EC50 (nM)>


> <kon (M-1-s-1)>


> <koff (s-1)>


> <pH>


> <Temp C>


> <Curation/DataSource>
ChEMBL

> <Article DOI>
10.1016/j.bmcl.2006.06.054

> <PubChem AID>


> <Patent Number>


> <Authors>
Ballard, P; Bradbury, RH; Harris, CS; Hennequin, LF; Hickinson, M; Kettle, JG; Kendrew, J; Klinowska, T; Ogilvie, DJ; Pearson, SE; Williams, EJ; Wilson, I

> <Institution>
AstraZeneca

> <Link to Ligand in BindingDB>
http://www.bindingdb.org/bind/chemsearch/marvin/MolStructure.jsp?monomerid=50189999

> <Link to Ligand-Target Pair in BindingDB>
http://www.bindingdb.org/jsp/dbsearch/PrimarySearch_ki.jsp?energyterm=kJ/mole&tag=r21&monomerid=50189999&enzyme=Epidermal+growth+factor+receptor&column=ki&startPg=0&Increment=50&submit=Search

> <Ligand HET ID in PDB>


> <PDB ID(s) for Ligand-Target Complex>


> <PubChem CID>
44416719

> <PubChem SID>
104073421

> <ChEBI ID of Ligand>


> <ChEMBL ID of Ligand>
CHEMBL214631

> <DrugBank ID of Ligand>


> <IUPHAR_GRAC ID of Ligand>


> <KEGG ID of Ligand>


> <ZINC ID of Ligand>
ZINC34800129

> <Number of Protein Chains in Target (>
1

> <BindingDB Target Chain Sequence>
MRPSGTAGAALLALLAALCPASRALEEKKVCQGTSNKLTQLGTFEDHFLSLQRMFNNCEVVLGNLEITYVQRNYDLSFLKTIQEVAGYVLIALNTVERIPLENLQIIRGNMYYENSYALAVLSNYDANKTGLKELPMRNLQEILHGAVRFSNNPALCNVESIQWRDIVSSDFLSNMSMDFQNHLGSCQKCDPSCPNGSCWGAGEENCQKLTKIICAQQCSGRCRGKSPSDCCHNQCAAGCTGPRESDCLVCRKFRDEATCKDTCPPLMLYNPTTYQMDVNPEGKYSFGATCVKKCPRNYVVTDHGSCVRACGADSYEMEEDGVRKCKKCEGPCRKVCNGIGIGEFKDSLSINATNIKHFKNCTSISGDLHILPVAFRGDSFTHTPPLDPQELDILKTVKEITGFLLIQAWPENRTDLHAFENLEIIRGRTKQHGQFSLAVVSLNITSLGLRSLKEISDGDVIISGNKNLCYANTINWKKLFGTSGQKTKIISNRGENSCKATGQVCHALCSPEGCWGPEPRDCVSCRNVSRGRECVDKCNLLEGEPREFVENSECIQCHPECLPQAMNITCTGRGPDNCIQCAHYIDGPHCVKTCPAGVMGENNTLVWKYADAGHVCHLCHPNCTYGCTGPGLEGCPTNGPKIPSIATGMVGALLLLLVVALGIGLFMRRRHIVRKRTLRRLLQERELVEPLTPSGEAPNQALLRILKETEFKKIKVLGSGAFGTVYKGLWIPEGEKVKIPVAIKELREATSPKANKEILDEAYVMASVDNPHVCRLLGICLTSTVQLITQLMPFGCLLDYVREHKDNIGSQYLLNWCVQIAKGMNYLEDRRLVHRDLAARNVLVKTPQHVKITDFGLAKLLGAEEKEYHAEGGKVPIKWMALESILHRIYTHQSDVWSYGVTVWELMTFGSKPYDGIPASEISSILEKGERLPQPPICTIDVYMIMVKCWMIDADSRPKFRELIIEFSKMARDPQRYLVIQGDERMHLPSPTDSNFYRALMDEEDMDDVVDADEYLIPQQGFFSSPSTSRTPLLSSLSATSNNSTVACIDRNGLQSCPIKEDSFLQRYSSDPTGALTEDSIDDTFLPVPEYINQSVPKRPAGSVQNPVYHNQPLNPAPSRDPHYQDPHSTAVGNPEYLNTVQPTCVNSTFDSPAHWAQKGSHQISLDNPDYQQDFFPKEAKPNGIFKGSTAENAEYLRVAPQSSEFIGA

> <PDB ID(s) of Target Chain>
1IVO,1M14,1M17,1MOX,1XKK,1Z9I,2GS2,2GS6,2ITW,2ITX,2ITY,2J5E,2J5F,2J6M,2RF9,2RGP,3B2V,3BEL,3GOP,3POZ,3QWQ,3VJO,3W2O,3W2P,3W2Q,3W2R,3W2S,3W32,3W33,4G5J,4I23,4JQ7,4JQ8,4JR3,4JRV,4KRO,4LI5,4RJ4,4RJ5,4RJ6,4RJ7,4RJ8,4TKS,4UIP,4UV7,4WKQ,4WRG,4ZAU,5C8K,5C8M,5C8N,5CAL,5CAN,5CAO,5CAP,5CAQ,5CAS,5CAU,5CAV,5EDP,5EDQ,5EDR,5EM5,5EM6,5EM7,5EM8,5FED,5GNK,5HCX,5HCY,5HCZ,5HIB,5HIC,5UGB,5WB7,5WB8,5Y25,6S89,6S8A

> <UniProt (SwissProt) Recommended Name of Target Chain>
Epidermal growth factor receptor

> <UniProt (SwissProt) Entry Name of Target Chain>
EGFR_HUMAN

> <UniProt (SwissProt) Primary ID of Target Chain>
P00533

> <UniProt (SwissProt) Secondary ID(s) of Target Chain>
O00688,O00732,P06268,Q14225,Q68GS5,Q92795,Q9BZS2,Q9GZX1,Q9H2C9,Q9H3C9,Q9UMD7,Q9UMD8,Q9UMG5

> <UniProt (SwissProt) Alternative ID(s) of Target Chain>


> <UniProt (TrEMBL) Submitted Name of Target Chain>


> <UniProt (TrEMBL) Entry Name of Target Chain>


> <UniProt (TrEMBL) Primary ID of Target Chain>


> <UniProt (TrEMBL) Secondary ID(s) of Target Chain>


> <UniProt (TrEMBL) Alternative ID(s) of Target Chain>


> <training label>
6.97469

> <i_lp_mmshare_version>
54117

> <s_epik_input>
RmMxW2NIXVtjSF1jKENsKVtjSF1jMVtOSF1jKG5bY0hdbjIpYyhjMjMpW2NIXWMoYyhbY0hdMylPW0NIM10pT1tDSF00W0NIMl1bQ0gyXU4oW0NIM10pW0NIMl1bQ0gyXTQ=

> <s_epik_cmdline>
J2VwaWtfcHl0aG9uJywgJy1waHQnLCAnMC4xJywgJy1waCcsICc3LjQnLCAnLXRuJywgJzgnLCAnLW1hJywgJzIwMCcsICctaW1hZScsICc8aW5maWxlLm1hZT4nLCAnLW9tYWUnLCAnPG91dGZpbGUubWFlPic=

> <r_lp_tautomer_probability>
1

> <r_epik_Ionization_Penalty>
  0.0231

> <r_epik_Ionization_Penalty_Charging>
  0.0226

> <r_epik_Ionization_Penalty_Neutral>
  0.0005

> <r_epik_State_Penalty>
  0.0000

> <r_epik_Charging_Adjusted_Penalty>
0.0225555000722947

> <i_epik_Tot_Q>
1

> <i_epik_Tot_abs_Q>
1

> <i_f3d_flags>
0

> <s_lp_Force_Field>
OPLS_2005

> <r_lp_Energy>
33.199471

> <b_lp_Chiralities_Consistent>
1

> <s_lp_Variant>
BindingDB_50189999_mol_1-2

> <s_i_glide_gridfile>
struct_1_site_1

> <i_i_glide_lignum>
152

> <i_i_glide_rotatable_bonds>
5

> <r_i_docking_score>
-7.43839423177402

> <r_i_glide_ligand_efficiency>
-0.256496352819794

> <r_i_glide_ligand_efficiency_sa>
-0.788038059610787

> <r_i_glide_ligand_efficiency_ln>
-1.70320365767323

> <r_i_glide_gscore>
-7.43839423177402

> <r_i_glide_lipo>
-2.91087375039698

> <r_i_glide_hbond>
-0.32

> <r_i_glide_metal>
0

> <r_i_glide_rewards>
-1.69899908267686

> <r_i_glide_evdw>
-41.3217735290527

> <r_i_glide_ecoul>
-5.26863527297974

> <r_i_glide_erotb>
0.452832715659473

> <r_i_glide_esite>
-0.104970146960058

> <r_i_glide_emodel>
-55.6264559060716

> <r_i_glide_energy>
-46.5904088020325

> <r_i_glide_einternal>
3.27640199661255

> <i_i_glide_confnum>
9

> <i_i_glide_posenum>
228

> <r_i_glide_eff_state_penalty>
0

> <IC50 (nM)>
106

> <PMID>
16806916

> <r_glide_shape_similarity>
0.869560360908508

> <s_m_subgroup_title>
505 training

> <s_m_subgroupid>
pocket_pv

> <b_m_subgroup_collapsed>
0

$$$$
BindingDB_50118010
                    3D
 Schrodinger Suite 2021-2.
 50 53  0  0  1  0            999 V2000
   21.3482   -0.2270   53.2966 C   0  0  0  0  0  0
   27.8258   -1.1863   53.2789 N   0  0  0  0  0  0
   22.6758   -0.0591   53.7464 C   0  0  0  0  0  0
   28.1192    0.1585   53.5121 C   0  0  0  0  0  0
   28.9103   -1.9366   53.3112 C   0  0  0  0  0  0
   20.5616   -1.2217   53.9460 C   0  0  0  0  0  0
   20.8287    0.5712   52.2460 C   0  0  0  0  0  0
   30.3581   -1.0836   53.7737 S   0  0  0  0  0  0
   23.2281   -0.8697   54.6668 N   0  0  0  0  0  0
   29.4414    0.3966   53.8087 C   0  0  0  0  0  0
   19.1834   -1.2628   53.5966 C   0  0  0  0  0  0
   23.3128    1.1128   53.3354 N   0  0  0  0  0  0
   19.4745    0.4796   51.8809 C   0  0  0  0  0  0
   18.6305   -0.3847   52.6062 C   0  0  0  0  0  0
   27.0435    1.0804   53.3292 C   0  0  0  0  0  0
   21.1400   -2.0429   54.8747 N   0  0  0  0  0  0
   22.4351   -1.8165   55.1645 C   0  0  0  0  0  0
   24.6467    1.4624   53.1850 C   0  0  0  0  0  0
   25.7230    0.6480   53.5705 C   0  0  0  0  0  0
   28.8821   -3.2657   52.9779 N   0  0  0  0  0  0
   18.9346    1.2588   50.8786 O   0  0  0  0  0  0
   17.2905   -0.2723   52.2805 O   0  0  0  0  0  0
   27.3069    2.3397   52.7579 C   0  0  0  0  0  0
   26.2303    3.1166   52.3049 C   0  0  0  0  0  0
   24.9073    2.6983   52.5383 C   0  0  0  0  0  0
   16.3170   -0.8213   53.1598 C   0  0  0  0  0  0
   19.6660    1.3623   49.6485 C   0  0  0  0  0  0
   14.9637   -0.1044   52.9496 C   0  0  0  0  0  0
   19.9777    2.8256   49.3162 C   0  0  0  0  0  0
   21.4538    1.2842   51.7236 H   0  0  0  0  0  0
   29.9491    1.3341   54.0136 H   0  0  0  0  0  0
   18.5467   -1.9616   54.1176 H   0  0  0  0  0  0
   22.6792    1.7586   52.8839 H   0  0  0  0  0  0
   22.8875   -2.4650   55.8999 H   0  0  0  0  0  0
   25.5523   -0.3249   53.9976 H   0  0  0  0  0  0
   28.0063   -3.7764   52.9785 H   0  0  0  0  0  0
   29.7101   -3.8407   53.0683 H   0  0  0  0  0  0
   28.3184    2.6582   52.5528 H   0  0  0  0  0  0
   26.4207    4.0391   51.7839 H   0  0  0  0  0  0
   24.1072    3.3380   52.2005 H   0  0  0  0  0  0
   16.2187   -1.8955   52.9366 H   0  0  0  0  0  0
   16.6421   -0.7125   54.1986 H   0  0  0  0  0  0
   19.0044    0.9723   48.8755 H   0  0  0  0  0  0
   20.5612    0.7397   49.6287 H   0  0  0  0  0  0
   14.1674   -0.6517   53.4800 H   0  0  0  0  0  0
   14.9725    0.9180   53.3486 H   0  0  0  0  0  0
   14.6946   -0.0581   51.8895 H   0  0  0  0  0  0
   20.5119    2.9251   48.3709 H   0  0  0  0  0  0
   20.5828    3.2691   50.1033 H   0  0  0  0  0  0
   19.0556    3.4016   49.2440 H   0  0  0  0  0  0
  1  3  1  0  0  0
  1  6  1  0  0  0
  1  7  2  0  0  0
  2  4  1  0  0  0
  2  5  2  0  0  0
  3  9  2  0  0  0
  3 12  1  0  0  0
  4 10  2  0  0  0
  4 15  1  0  0  0
  5  8  1  0  0  0
  5 20  1  0  0  0
  6 11  2  0  0  0
  6 16  1  0  0  0
  7 13  1  0  0  0
  7 30  1  0  0  0
  8 10  1  0  0  0
  9 17  1  0  0  0
 10 31  1  0  0  0
 11 14  1  0  0  0
 11 32  1  0  0  0
 12 18  1  0  0  0
 12 33  1  0  0  0
 13 14  2  0  0  0
 13 21  1  0  0  0
 14 22  1  0  0  0
 15 19  1  0  0  0
 15 23  2  0  0  0
 16 17  2  0  0  0
 17 34  1  0  0  0
 18 19  2  0  0  0
 18 25  1  0  0  0
 19 35  1  0  0  0
 20 36  1  0  0  0
 20 37  1  0  0  0
 21 27  1  0  0  0
 22 26  1  0  0  0
 23 24  1  0  0  0
 23 38  1  0  0  0
 24 25  2  0  0  0
 24 39  1  0  0  0
 25 40  1  0  0  0
 26 28  1  0  0  0
 26 41  1  0  0  0
 26 42  1  0  0  0
 27 29  1  0  0  0
 27 43  1  0  0  0
 27 44  1  0  0  0
 28 45  1  0  0  0
 28 46  1  0  0  0
 28 47  1  0  0  0
 29 48  1  0  0  0
 29 49  1  0  0  0
 29 50  1  0  0  0
M  END
> <s_m_entry_id>
317

> <s_m_entry_name>
pocket_pv.128

> <s_m_Source_Path>
/home/bortolaa/Project/GT/mario-master/docking/set505protein_struct_1_site_1_set505ligs_train

> <s_m_Source_File>
pocket_pv.maegz

> <i_m_Source_File_Index>
128

> <From>
www.bindingDB.org

> <BindingDB Reactant_set_id>
50213012

> <Ligand InChI>
InChI=1S/C21H21N5O2S/c1-3-27-18-9-15-16(10-19(18)28-4-2)23-12-24-20(15)25-14-7-5-6-13(8-14)17-11-29-21(22)26-17/h5-12H,3-4H2,1-2H3,(H2,22,26)(H,23,24,25)

> <Ligand InChI Key>
GOHZFDZYDZGWHC-UHFFFAOYSA-N

> <BindingDB MonomerID>
50118010

> <BindingDB Ligand Name>
CHEMBL340660::[3-(2-Amino-thiazol-4-yl)-phenyl]-(6,7-diethoxy-quinazolin-4-yl)-amine

> <Target Name Assigned by Curator or DataSource>
Epidermal growth factor receptor

> <Target Source Organism According to Curator or DataSource>
Homo sapiens

> <Ki (nM)>


> <IC50 (nM)>
560

> <Kd (nM)>


> <EC50 (nM)>


> <kon (M-1-s-1)>


> <koff (s-1)>


> <pH>


> <Temp C>


> <Curation/DataSource>
ChEMBL

> <Article DOI>
10.1021/jm010496a

> <PubChem AID>


> <Patent Number>


> <Authors>
Wright, SW; Carlo, AA; Carty, MD; Danley, DE; Hageman, DL; Karam, GA; Levy, CB; Mansour, MN; Mathiowetz, AM; McClure, LD; Nestor, NB; McPherson, RK; Pandit, J; Pustilnik, LR; Schulte, GK; Soeller, WC; Treadway, JL; Wang, IK; Bauer, PH

> <Institution>
Pfizer Central Research

> <Link to Ligand in BindingDB>
http://www.bindingdb.org/bind/chemsearch/marvin/MolStructure.jsp?monomerid=50118010

> <Link to Ligand-Target Pair in BindingDB>
http://www.bindingdb.org/jsp/dbsearch/PrimarySearch_ki.jsp?energyterm=kJ/mole&tag=r21&monomerid=50118010&enzyme=Epidermal+growth+factor+receptor&column=ki&startPg=0&Increment=50&submit=Search

> <Ligand HET ID in PDB>


> <PDB ID(s) for Ligand-Target Complex>


> <PubChem CID>
10216257

> <PubChem SID>
104011414

> <ChEBI ID of Ligand>


> <ChEMBL ID of Ligand>
CHEMBL340660

> <DrugBank ID of Ligand>


> <IUPHAR_GRAC ID of Ligand>


> <KEGG ID of Ligand>


> <ZINC ID of Ligand>
ZINC13490777

> <Number of Protein Chains in Target (>
1

> <BindingDB Target Chain Sequence>
MRPSGTAGAALLALLAALCPASRALEEKKVCQGTSNKLTQLGTFEDHFLSLQRMFNNCEVVLGNLEITYVQRNYDLSFLKTIQEVAGYVLIALNTVERIPLENLQIIRGNMYYENSYALAVLSNYDANKTGLKELPMRNLQEILHGAVRFSNNPALCNVESIQWRDIVSSDFLSNMSMDFQNHLGSCQKCDPSCPNGSCWGAGEENCQKLTKIICAQQCSGRCRGKSPSDCCHNQCAAGCTGPRESDCLVCRKFRDEATCKDTCPPLMLYNPTTYQMDVNPEGKYSFGATCVKKCPRNYVVTDHGSCVRACGADSYEMEEDGVRKCKKCEGPCRKVCNGIGIGEFKDSLSINATNIKHFKNCTSISGDLHILPVAFRGDSFTHTPPLDPQELDILKTVKEITGFLLIQAWPENRTDLHAFENLEIIRGRTKQHGQFSLAVVSLNITSLGLRSLKEISDGDVIISGNKNLCYANTINWKKLFGTSGQKTKIISNRGENSCKATGQVCHALCSPEGCWGPEPRDCVSCRNVSRGRECVDKCNLLEGEPREFVENSECIQCHPECLPQAMNITCTGRGPDNCIQCAHYIDGPHCVKTCPAGVMGENNTLVWKYADAGHVCHLCHPNCTYGCTGPGLEGCPTNGPKIPSIATGMVGALLLLLVVALGIGLFMRRRHIVRKRTLRRLLQERELVEPLTPSGEAPNQALLRILKETEFKKIKVLGSGAFGTVYKGLWIPEGEKVKIPVAIKELREATSPKANKEILDEAYVMASVDNPHVCRLLGICLTSTVQLITQLMPFGCLLDYVREHKDNIGSQYLLNWCVQIAKGMNYLEDRRLVHRDLAARNVLVKTPQHVKITDFGLAKLLGAEEKEYHAEGGKVPIKWMALESILHRIYTHQSDVWSYGVTVWELMTFGSKPYDGIPASEISSILEKGERLPQPPICTIDVYMIMVKCWMIDADSRPKFRELIIEFSKMARDPQRYLVIQGDERMHLPSPTDSNFYRALMDEEDMDDVVDADEYLIPQQGFFSSPSTSRTPLLSSLSATSNNSTVACIDRNGLQSCPIKEDSFLQRYSSDPTGALTEDSIDDTFLPVPEYINQSVPKRPAGSVQNPVYHNQPLNPAPSRDPHYQDPHSTAVGNPEYLNTVQPTCVNSTFDSPAHWAQKGSHQISLDNPDYQQDFFPKEAKPNGIFKGSTAENAEYLRVAPQSSEFIGA

> <PDB ID(s) of Target Chain>
1IVO,1M14,1M17,1MOX,1XKK,1Z9I,2GS2,2GS6,2ITW,2ITX,2ITY,2J5E,2J5F,2J6M,2RF9,2RGP,3B2V,3BEL,3GOP,3POZ,3QWQ,3VJO,3W2O,3W2P,3W2Q,3W2R,3W2S,3W32,3W33,4G5J,4I23,4JQ7,4JQ8,4JR3,4JRV,4KRO,4LI5,4RJ4,4RJ5,4RJ6,4RJ7,4RJ8,4TKS,4UIP,4UV7,4WKQ,4WRG,4ZAU,5C8K,5C8M,5C8N,5CAL,5CAN,5CAO,5CAP,5CAQ,5CAS,5CAU,5CAV,5EDP,5EDQ,5EDR,5EM5,5EM6,5EM7,5EM8,5FED,5GNK,5HCX,5HCY,5HCZ,5HIB,5HIC,5UGB,5WB7,5WB8,5Y25,6S89,6S8A

> <UniProt (SwissProt) Recommended Name of Target Chain>
Epidermal growth factor receptor

> <UniProt (SwissProt) Entry Name of Target Chain>
EGFR_HUMAN

> <UniProt (SwissProt) Primary ID of Target Chain>
P00533

> <UniProt (SwissProt) Secondary ID(s) of Target Chain>
O00688,O00732,P06268,Q14225,Q68GS5,Q92795,Q9BZS2,Q9GZX1,Q9H2C9,Q9H3C9,Q9UMD7,Q9UMD8,Q9UMG5

> <UniProt (SwissProt) Alternative ID(s) of Target Chain>


> <UniProt (TrEMBL) Submitted Name of Target Chain>


> <UniProt (TrEMBL) Entry Name of Target Chain>


> <UniProt (TrEMBL) Primary ID of Target Chain>


> <UniProt (TrEMBL) Secondary ID(s) of Target Chain>


> <UniProt (TrEMBL) Alternative ID(s) of Target Chain>


> <training label>
6.25181

> <i_lp_mmshare_version>
54117

> <s_epik_input>
W0NIM11bQ0gyXU9jKFtjSF0xKWMoT1tDSDJdW0NIM10pW2NIXWMoYzEyKW5bY0hdbmMyW05IXWMoW2NIXVtjSF1bY0hdMylbY0hdYzMtYzRuYyhbTkgyXSlzW2NIXTQ=

> <s_epik_cmdline>
J2VwaWtfcHl0aG9uJywgJy1waHQnLCAnMC4xJywgJy1waCcsICc3LjQnLCAnLXRuJywgJzgnLCAnLW1hJywgJzIwMCcsICctaW1hZScsICc8aW5maWxlLm1hZT4nLCAnLW9tYWUnLCAnPG91dGZpbGUubWFlPic=

> <r_lp_tautomer_probability>
1

> <r_epik_Ionization_Penalty>
  0.0020

> <r_epik_Ionization_Penalty_Charging>
  0.0000

> <r_epik_Ionization_Penalty_Neutral>
  0.0020

> <r_epik_State_Penalty>
  0.0000

> <r_epik_Charging_Adjusted_Penalty>
0

> <i_epik_Tot_Q>
0

> <i_epik_Tot_abs_Q>
0

> <i_f3d_flags>
0

> <s_lp_Force_Field>
OPLS_2005

> <r_lp_Energy>
19.139959

> <b_lp_Chiralities_Consistent>
1

> <s_lp_Variant>
BindingDB_50118010-1

> <s_i_glide_gridfile>
struct_1_site_1

> <i_i_glide_lignum>
100

> <i_i_glide_rotatable_bonds>
7

> <r_i_docking_score>
-7.4379295954052

> <r_i_glide_ligand_efficiency>
-0.256480330876041

> <r_i_glide_ligand_efficiency_sa>
-0.787988835123472

> <r_i_glide_ligand_efficiency_ln>
-1.70309726772694

> <r_i_glide_gscore>
-7.4379295954052

> <r_i_glide_lipo>
-3.01430152886471

> <r_i_glide_hbond>
-0.640129457953269

> <r_i_glide_metal>
0

> <r_i_glide_rewards>
-1.23061358703859

> <r_i_glide_evdw>
-43.6679077148438

> <r_i_glide_ecoul>
-6.41238927841187

> <r_i_glide_erotb>
0.592368755955329

> <r_i_glide_esite>
0

> <r_i_glide_emodel>
-51.3219394518238

> <r_i_glide_energy>
-50.0802969932556

> <r_i_glide_einternal>
6.11480093002319

> <i_i_glide_confnum>
38

> <i_i_glide_posenum>
372

> <r_i_glide_eff_state_penalty>
0

> <PMID>
12190310

> <r_glide_shape_similarity>
0.806975483894348

> <s_m_subgroup_title>
505 training

> <s_m_subgroupid>
pocket_pv

> <b_m_subgroup_collapsed>
0

$$$$
BindingDB_50144606_mol_1
                    3D
 Schrodinger Suite 2021-2.
 44 47  0  0  1  0            999 V2000
   24.8250    0.8003   53.1040 N   0  0  0  0  0  0
   26.2637    0.9610   52.7814 C   0  0  2  0  0  0
   24.1862   -0.0518   53.9839 C   0  0  0  0  0  0
   22.8173    0.0235   53.6433 C   0  0  0  0  0  0
   22.5874    0.9569   52.6681 N   0  0  0  0  0  0
   26.9471   -0.3275   52.3174 C   0  0  1  0  0  0
   23.8221    1.3899   52.4370 C   0  0  0  0  0  0
   26.9927    1.4463   53.8367 O   0  0  0  0  0  0
   28.3196   -0.2356   52.9352 C   0  0  1  0  0  0
   28.3470    1.2126   53.4561 C   0  0  2  0  0  0
   21.9755   -0.8574   54.3302 C   0  0  0  0  0  0
   24.7054   -0.8465   54.9565 N   0  0  0  0  0  0
   22.4604   -1.6636   55.2849 N   0  0  0  0  0  0
   20.2862   -1.0383   54.0330 S   0  0  0  0  0  0
   23.7628   -1.5830   55.5403 C   0  0  0  0  0  0
   26.2910   -1.5453   52.5842 O   0  0  0  0  0  0
   28.5110   -1.1599   53.9764 O   0  0  0  0  0  0
   19.7958   -0.1006   52.5658 C   0  0  0  0  0  0
   15.4823   -0.0908   52.4086 C   0  0  0  0  0  0
   18.2960   -0.1757   52.4051 C   0  0  0  0  0  0
   29.3079    1.4447   54.6142 C   0  0  0  0  0  0
   13.4174    0.0193   52.6319 I   0  0  0  0  0  0
   16.2090    0.9220   51.7724 C   0  0  0  0  0  0
   16.1475   -1.1945   52.9438 C   0  0  0  0  0  0
   17.6173    0.8719   51.7720 C   0  0  0  0  0  0
   17.5480   -1.2434   52.9346 C   0  0  0  0  0  0
   29.8872    2.7291   54.5743 O   0  0  0  0  0  0
   26.2757    1.7168   51.9949 H   0  0  0  0  0  0
   27.0202   -0.2643   51.2426 H   0  0  0  0  0  0
   24.0128    2.1042   51.6528 H   0  0  0  0  0  0
   29.0772   -0.4466   52.1750 H   0  0  0  0  0  0
   28.6047    1.8794   52.6293 H   0  0  0  0  0  0
   24.1237   -2.2126   56.3346 H   0  0  0  0  0  0
   26.7909   -2.2593   52.2144 H   0  0  0  0  0  0
   28.2221   -2.0134   53.6739 H   0  0  0  0  0  0
   20.0564    0.9498   52.7163 H   0  0  0  0  0  0
   20.2965   -0.4575   51.6705 H   0  0  0  0  0  0
   30.1394    0.7337   54.5720 H   0  0  0  0  0  0
   28.7760    1.2959   55.5527 H   0  0  0  0  0  0
   15.6942    1.7701   51.3401 H   0  0  0  0  0  0
   15.5893   -2.0085   53.3772 H   0  0  0  0  0  0
   18.1683    1.6935   51.3433 H   0  0  0  0  0  0
   18.0162   -2.1173   53.3694 H   0  0  0  0  0  0
   30.5464    2.7335   53.8793 H   0  0  0  0  0  0
  1  2  1  0  0  0
  1  3  1  0  0  0
  1  7  1  0  0  0
  2  6  1  0  0  0
  2  8  1  0  0  0
  2 28  1  0  0  0
  3  4  2  0  0  0
  3 12  1  0  0  0
  4 11  1  0  0  0
  4  5  1  0  0  0
  5  7  2  0  0  0
  6  9  1  0  0  0
  6 16  1  0  0  0
  6 29  1  0  0  0
  7 30  1  0  0  0
  8 10  1  0  0  0
  9 17  1  0  0  0
  9 10  1  0  0  0
  9 31  1  0  0  0
 10 21  1  0  0  0
 10 32  1  0  0  0
 11 14  1  0  0  0
 11 13  2  0  0  0
 12 15  2  0  0  0
 13 15  1  0  0  0
 14 18  1  0  0  0
 15 33  1  0  0  0
 16 34  1  0  0  0
 17 35  1  0  0  0
 18 20  1  0  0  0
 18 36  1  0  0  0
 18 37  1  0  0  0
 19 24  2  0  0  0
 19 22  1  0  0  0
 19 23  1  0  0  0
 20 25  1  0  0  0
 20 26  2  0  0  0
 21 27  1  0  0  0
 21 38  1  0  0  0
 21 39  1  0  0  0
 23 25  2  0  0  0
 23 40  1  0  0  0
 24 26  1  0  0  0
 24 41  1  0  0  0
 25 42  1  0  0  0
 26 43  1  0  0  0
 27 44  1  0  0  0
M  END
> <s_m_entry_id>
318

> <s_m_entry_name>
pocket_pv.129

> <s_m_Source_Path>
/home/bortolaa/Project/GT/mario-master/docking/set505protein_struct_1_site_1_set505ligs_train

> <s_m_Source_File>
pocket_pv.maegz

> <i_m_Source_File_Index>
129

> <From>
www.bindingDB.org

> <BindingDB Reactant_set_id>
50463846

> <Ligand InChI>
InChI=1S/C29H23ClN4O3/c1-36-26-15-23-25(16-27(26)37-17-19-7-3-2-4-8-19)31-18-32-28(23)33-20-11-13-21(14-12-20)34-29(35)22-9-5-6-10-24(22)30/h2-16,18H,17H2,1H3,(H,34,35)(H,31,32,33)

> <Ligand InChI Key>
JASSTMZJDQXQFP-UHFFFAOYSA-N

> <BindingDB MonomerID>
50144606

> <BindingDB Ligand Name>
CHEMBL3759203

> <Target Name Assigned by Curator or DataSource>
Epidermal growth factor receptor

> <Target Source Organism According to Curator or DataSource>
Homo sapiens

> <Ki (nM)>


> <IC50 (nM)>
730

> <Kd (nM)>


> <EC50 (nM)>


> <kon (M-1-s-1)>


> <koff (s-1)>


> <pH>


> <Temp C>


> <Curation/DataSource>
ChEMBL

> <Article DOI>
10.1016/j.ejmech.2015.12.032

> <PubChem AID>


> <Patent Number>


> <Authors>
Zhang, HQ; Gong, FH; Li, CG; Zhang, C; Wang, YJ; Xu, YG; Sun, LP

> <Institution>
China Pharmaceutical University

> <Link to Ligand in BindingDB>
http://www.bindingdb.org/bind/chemsearch/marvin/MolStructure.jsp?monomerid=50144606

> <Link to Ligand-Target Pair in BindingDB>
http://www.bindingdb.org/jsp/dbsearch/PrimarySearch_ki.jsp?energyterm=kJ/mole&tag=r21&monomerid=50144606&enzyme=Epidermal+growth+factor+receptor&column=ki&startPg=0&Increment=50&submit=Search

> <Ligand HET ID in PDB>


> <PDB ID(s) for Ligand-Target Complex>


> <PubChem CID>
44312149

> <PubChem SID>
104033684

> <ChEBI ID of Ligand>


> <ChEMBL ID of Ligand>
CHEMBL3759203

> <DrugBank ID of Ligand>


> <IUPHAR_GRAC ID of Ligand>


> <KEGG ID of Ligand>


> <ZINC ID of Ligand>
ZINC36332177

> <Number of Protein Chains in Target (>
1

> <BindingDB Target Chain Sequence>
MRPSGTAGAALLALLAALCPASRALEEKKVCQGTSNKLTQLGTFEDHFLSLQRMFNNCEVVLGNLEITYVQRNYDLSFLKTIQEVAGYVLIALNTVERIPLENLQIIRGNMYYENSYALAVLSNYDANKTGLKELPMRNLQEILHGAVRFSNNPALCNVESIQWRDIVSSDFLSNMSMDFQNHLGSCQKCDPSCPNGSCWGAGEENCQKLTKIICAQQCSGRCRGKSPSDCCHNQCAAGCTGPRESDCLVCRKFRDEATCKDTCPPLMLYNPTTYQMDVNPEGKYSFGATCVKKCPRNYVVTDHGSCVRACGADSYEMEEDGVRKCKKCEGPCRKVCNGIGIGEFKDSLSINATNIKHFKNCTSISGDLHILPVAFRGDSFTHTPPLDPQELDILKTVKEITGFLLIQAWPENRTDLHAFENLEIIRGRTKQHGQFSLAVVSLNITSLGLRSLKEISDGDVIISGNKNLCYANTINWKKLFGTSGQKTKIISNRGENSCKATGQVCHALCSPEGCWGPEPRDCVSCRNVSRGRECVDKCNLLEGEPREFVENSECIQCHPECLPQAMNITCTGRGPDNCIQCAHYIDGPHCVKTCPAGVMGENNTLVWKYADAGHVCHLCHPNCTYGCTGPGLEGCPTNGPKIPSIATGMVGALLLLLVVALGIGLFMRRRHIVRKRTLRRLLQERELVEPLTPSGEAPNQALLRILKETEFKKIKVLGSGAFGTVYKGLWIPEGEKVKIPVAIKELREATSPKANKEILDEAYVMASVDNPHVCRLLGICLTSTVQLITQLMPFGCLLDYVREHKDNIGSQYLLNWCVQIAKGMNYLEDRRLVHRDLAARNVLVKTPQHVKITDFGLAKLLGAEEKEYHAEGGKVPIKWMALESILHRIYTHQSDVWSYGVTVWELMTFGSKPYDGIPASEISSILEKGERLPQPPICTIDVYMIMVKCWMIDADSRPKFRELIIEFSKMARDPQRYLVIQGDERMHLPSPTDSNFYRALMDEEDMDDVVDADEYLIPQQGFFSSPSTSRTPLLSSLSATSNNSTVACIDRNGLQSCPIKEDSFLQRYSSDPTGALTEDSIDDTFLPVPEYINQSVPKRPAGSVQNPVYHNQPLNPAPSRDPHYQDPHSTAVGNPEYLNTVQPTCVNSTFDSPAHWAQKGSHQISLDNPDYQQDFFPKEAKPNGIFKGSTAENAEYLRVAPQSSEFIGA

> <PDB ID(s) of Target Chain>
1IVO,1M14,1M17,1MOX,1XKK,1Z9I,2GS2,2GS6,2ITW,2ITX,2ITY,2J5E,2J5F,2J6M,2RF9,2RGP,3B2V,3BEL,3GOP,3POZ,3QWQ,3VJO,3W2O,3W2P,3W2Q,3W2R,3W2S,3W32,3W33,4G5J,4I23,4JQ7,4JQ8,4JR3,4JRV,4KRO,4LI5,4RJ4,4RJ5,4RJ6,4RJ7,4RJ8,4TKS,4UIP,4UV7,4WKQ,4WRG,4ZAU,5C8K,5C8M,5C8N,5CAL,5CAN,5CAO,5CAP,5CAQ,5CAS,5CAU,5CAV,5EDP,5EDQ,5EDR,5EM5,5EM6,5EM7,5EM8,5FED,5GNK,5HCX,5HCY,5HCZ,5HIB,5HIC,5UGB,5WB7,5WB8,5Y25,6S89,6S8A

> <UniProt (SwissProt) Recommended Name of Target Chain>
Epidermal growth factor receptor

> <UniProt (SwissProt) Entry Name of Target Chain>
EGFR_HUMAN

> <UniProt (SwissProt) Primary ID of Target Chain>
P00533

> <UniProt (SwissProt) Secondary ID(s) of Target Chain>
O00688,O00732,P06268,Q14225,Q68GS5,Q92795,Q9BZS2,Q9GZX1,Q9H2C9,Q9H3C9,Q9UMD7,Q9UMD8,Q9UMG5

> <UniProt (SwissProt) Alternative ID(s) of Target Chain>


> <UniProt (TrEMBL) Submitted Name of Target Chain>


> <UniProt (TrEMBL) Entry Name of Target Chain>


> <UniProt (TrEMBL) Primary ID of Target Chain>


> <UniProt (TrEMBL) Secondary ID(s) of Target Chain>


> <UniProt (TrEMBL) Alternative ID(s) of Target Chain>


> <training label>
6.13668

> <i_lp_mmshare_version>
54117

> <s_epik_input>
W09IXVtDSDJdW0NASF0oTzEpW0NAQEhdKFtPSF0pW0NAQEhdKFtPSF0pW0NASF0xbjJbY0hdbmMoYzIzKWMobltjSF1uMylTW0NIMl1jKFtjSF1bY0hdNClbY0hdW2NIXWM0SQ==

> <s_epik_cmdline>
J2VwaWtfcHl0aG9uJywgJy1waHQnLCAnMC4xJywgJy1waCcsICc3LjQnLCAnLXRuJywgJzgnLCAnLW1hJywgJzIwMCcsICctaW1hZScsICc8aW5maWxlLm1hZT4nLCAnLW9tYWUnLCAnPG91dGZpbGUubWFlPic=

> <r_lp_tautomer_probability>
1

> <r_epik_Ionization_Penalty>
  0.0001

> <r_epik_Ionization_Penalty_Charging>
  0.0000

> <r_epik_Ionization_Penalty_Neutral>
  0.0001

> <r_epik_State_Penalty>
  0.0000

> <r_epik_Charging_Adjusted_Penalty>
0

> <i_epik_Tot_Q>
0

> <i_epik_Tot_abs_Q>
0

> <i_f3d_flags>
0

> <s_lp_Force_Field>
OPLS_2005

> <r_lp_Energy>
42.304418

> <b_lp_Chiralities_Consistent>
1

> <s_lp_Variant>
BindingDB_50144606_mol_1-3

> <s_i_glide_gridfile>
struct_1_site_1

> <i_i_glide_lignum>
82

> <i_i_glide_rotatable_bonds>
8

> <r_i_docking_score>
-7.43777939846854

> <r_i_glide_ligand_efficiency>
-0.27547331105439

> <r_i_glide_ligand_efficiency_sa>
-0.826419932255256

> <r_i_glide_ligand_efficiency_ln>
-1.73139242258671

> <r_i_glide_gscore>
-7.43777939846854

> <r_i_glide_lipo>
-2.45716927019597

> <r_i_glide_hbond>
-0.0915203157357427

> <r_i_glide_metal>
0

> <r_i_glide_rewards>
-1.95915418693526

> <r_i_glide_evdw>
-38.8561401367188

> <r_i_glide_ecoul>
-9.29997062683105

> <r_i_glide_erotb>
0.407866975259027

> <r_i_glide_esite>
0

> <r_i_glide_emodel>
-34.4843824170401

> <r_i_glide_energy>
-48.1561107635498

> <r_i_glide_einternal>
11.3240346908569

> <i_i_glide_confnum>
308

> <i_i_glide_posenum>
17

> <r_i_glide_eff_state_penalty>
0

> <PMID>
26826581

> <s_epik_Chemistry_Notes>
This compound contains an acetal/aminal-like group ( X-CH(R)-Y where X, Y are N, S, or O) that may be acid/base labile, releasing an aldehyde.

> <r_glide_shape_similarity>
0.733258724212646

> <s_m_subgroup_title>
505 training

> <s_m_subgroupid>
pocket_pv

> <b_m_subgroup_collapsed>
0

$$$$
BindingDB_50117960
                    3D
 Schrodinger Suite 2021-2.
 54 57  0  0  1  0            999 V2000
   22.6381    0.1615   53.4337 C   0  0  0  0  0  0
   21.2770   -0.0172   53.1016 C   0  0  0  0  0  0
   23.2383   -0.5759   54.3746 N   0  0  0  0  0  0
   27.9290   -1.2406   53.3171 N   0  0  0  0  0  0
   20.5521   -0.9758   53.8598 C   0  0  0  0  0  0
   28.1630    0.1230   53.5186 C   0  0  0  0  0  0
   21.1878   -1.6918   54.8345 N   0  0  0  0  0  0
   20.6684    0.7159   52.0558 C   0  0  0  0  0  0
   22.4993   -1.4614   55.0161 C   0  0  0  0  0  0
   29.0405   -1.9619   53.4083 C   0  0  0  0  0  0
   19.1785   -1.1447   53.5410 C   0  0  0  0  0  0
   30.4566   -1.0078   53.7772 S   0  0  0  0  0  0
   29.4746    0.4154   53.8041 C   0  0  0  0  0  0
   23.3720    1.1704   52.8094 N   0  0  0  0  0  0
   19.3128    0.5164   51.7179 C   0  0  0  0  0  0
   18.5596   -0.4183   52.4814 C   0  0  0  0  0  0
   27.0957    1.0553   53.2757 C   0  0  0  0  0  0
   24.7268    1.5013   52.8824 C   0  0  0  0  0  0
   25.7471    0.6485   53.3620 C   0  0  0  0  0  0
   18.7013    1.1914   50.6695 O   0  0  0  0  0  0
   17.2474   -0.6609   52.1306 O   0  0  0  0  0  0
   27.4373    2.3238   52.7747 C   0  0  0  0  0  0
   29.0674   -3.4277   53.2709 C   0  0  0  0  0  0
   23.2668   -2.2132   56.0825 C   0  0  0  0  0  0
   26.4251    3.1247   52.2350 C   0  0  0  0  0  0
   25.0767    2.7432   52.3166 C   0  0  0  0  0  0
   19.5056    2.0220   49.8148 C   0  0  0  0  0  0
   16.2686   -0.0612   52.9730 C   0  0  0  0  0  0
   18.6298    2.6780   48.7372 C   0  0  0  0  0  0
   14.8543   -0.3679   52.4648 C   0  0  0  0  0  0
   21.2606    1.4155   51.4919 H   0  0  0  0  0  0
   18.5983   -1.8622   54.1005 H   0  0  0  0  0  0
   29.9412    1.3760   53.9767 H   0  0  0  0  0  0
   22.8165    1.8107   52.2613 H   0  0  0  0  0  0
   25.5357   -0.3482   53.7108 H   0  0  0  0  0  0
   28.4647    2.6444   52.6873 H   0  0  0  0  0  0
   28.1832   -3.8492   53.7336 H   0  0  0  0  0  0
   29.0817   -3.6660   52.2111 H   0  0  0  0  0  0
   29.9396   -3.8354   53.7750 H   0  0  0  0  0  0
   24.1719   -1.6774   56.3730 H   0  0  0  0  0  0
   22.6911   -2.3586   56.9743 H   0  0  0  0  0  0
   23.5556   -3.2099   55.7774 H   0  0  0  0  0  0
   26.6868    4.0561   51.7633 H   0  0  0  0  0  0
   24.3224    3.4000   51.9087 H   0  0  0  0  0  0
   20.2854    1.4251   49.3394 H   0  0  0  0  0  0
   19.9833    2.8127   50.3949 H   0  0  0  0  0  0
   16.3844   -0.4262   53.9947 H   0  0  0  0  0  0
   16.4100    1.0140   52.9707 H   0  0  0  0  0  0
   19.2285    3.3050   48.0765 H   0  0  0  0  0  0
   17.8627    3.3074   49.1900 H   0  0  0  0  0  0
   18.1289    1.9315   48.1239 H   0  0  0  0  0  0
   14.0966    0.0496   53.1283 H   0  0  0  0  0  0
   14.6994    0.0466   51.4692 H   0  0  0  0  0  0
   14.6920   -1.4434   52.4102 H   0  0  0  0  0  0
  1  2  1  0  0  0
  1  3  2  0  0  0
  1 14  1  0  0  0
  2  5  1  0  0  0
  2  8  2  0  0  0
  3  9  1  0  0  0
  4  6  1  0  0  0
  4 10  2  0  0  0
  5  7  1  0  0  0
  5 11  2  0  0  0
  6 13  2  0  0  0
  6 17  1  0  0  0
  7  9  2  0  0  0
  8 15  1  0  0  0
  8 31  1  0  0  0
  9 24  1  0  0  0
 10 12  1  0  0  0
 10 23  1  0  0  0
 11 16  1  0  0  0
 11 32  1  0  0  0
 12 13  1  0  0  0
 13 33  1  0  0  0
 14 18  1  0  0  0
 14 34  1  0  0  0
 15 16  2  0  0  0
 15 20  1  0  0  0
 16 21  1  0  0  0
 17 19  1  0  0  0
 17 22  2  0  0  0
 18 19  2  0  0  0
 18 26  1  0  0  0
 19 35  1  0  0  0
 20 27  1  0  0  0
 21 28  1  0  0  0
 22 25  1  0  0  0
 22 36  1  0  0  0
 23 37  1  0  0  0
 23 38  1  0  0  0
 23 39  1  0  0  0
 24 40  1  0  0  0
 24 41  1  0  0  0
 24 42  1  0  0  0
 25 26  2  0  0  0
 25 43  1  0  0  0
 26 44  1  0  0  0
 27 29  1  0  0  0
 27 45  1  0  0  0
 27 46  1  0  0  0
 28 30  1  0  0  0
 28 47  1  0  0  0
 28 48  1  0  0  0
 29 49  1  0  0  0
 29 50  1  0  0  0
 29 51  1  0  0  0
 30 52  1  0  0  0
 30 53  1  0  0  0
 30 54  1  0  0  0
M  END
> <s_m_entry_id>
319

> <s_m_entry_name>
pocket_pv.130

> <s_m_Source_Path>
/home/bortolaa/Project/GT/mario-master/docking/set505protein_struct_1_site_1_set505ligs_train

> <s_m_Source_File>
pocket_pv.maegz

> <i_m_Source_File_Index>
130

> <From>
www.bindingDB.org

> <BindingDB Reactant_set_id>
50212945

> <Ligand InChI>
InChI=1S/C23H24N4O2S/c1-5-28-21-11-18-19(12-22(21)29-6-2)24-14(3)25-23(18)27-17-9-7-8-16(10-17)20-13-30-15(4)26-20/h7-13H,5-6H2,1-4H3,(H,24,25,27)

> <Ligand InChI Key>
INMBKJSYCMSQID-UHFFFAOYSA-N

> <BindingDB MonomerID>
50117960

> <BindingDB Ligand Name>
(6,7-Diethoxy-2-methyl-quinazolin-4-yl)-[3-(2-methyl-thiazol-4-yl)-phenyl]-amine::CHEMBL128027

> <Target Name Assigned by Curator or DataSource>
Epidermal growth factor receptor

> <Target Source Organism According to Curator or DataSource>
Homo sapiens

> <Ki (nM)>


> <IC50 (nM)>
9000

> <Kd (nM)>


> <EC50 (nM)>


> <kon (M-1-s-1)>


> <koff (s-1)>


> <pH>


> <Temp C>


> <Curation/DataSource>
ChEMBL

> <Article DOI>
10.1021/jm010496a

> <PubChem AID>


> <Patent Number>


> <Authors>
Wright, SW; Carlo, AA; Carty, MD; Danley, DE; Hageman, DL; Karam, GA; Levy, CB; Mansour, MN; Mathiowetz, AM; McClure, LD; Nestor, NB; McPherson, RK; Pandit, J; Pustilnik, LR; Schulte, GK; Soeller, WC; Treadway, JL; Wang, IK; Bauer, PH

> <Institution>
Pfizer Central Research

> <Link to Ligand in BindingDB>
http://www.bindingdb.org/bind/chemsearch/marvin/MolStructure.jsp?monomerid=50117960

> <Link to Ligand-Target Pair in BindingDB>
http://www.bindingdb.org/jsp/dbsearch/PrimarySearch_ki.jsp?energyterm=kJ/mole&tag=r21&monomerid=50117960&enzyme=Epidermal+growth+factor+receptor&column=ki&startPg=0&Increment=50&submit=Search

> <Ligand HET ID in PDB>


> <PDB ID(s) for Ligand-Target Complex>


> <PubChem CID>
10194617

> <PubChem SID>
104011364

> <ChEBI ID of Ligand>


> <ChEMBL ID of Ligand>
CHEMBL128027

> <DrugBank ID of Ligand>


> <IUPHAR_GRAC ID of Ligand>


> <KEGG ID of Ligand>


> <ZINC ID of Ligand>
ZINC13490816

> <Number of Protein Chains in Target (>
1

> <BindingDB Target Chain Sequence>
MRPSGTAGAALLALLAALCPASRALEEKKVCQGTSNKLTQLGTFEDHFLSLQRMFNNCEVVLGNLEITYVQRNYDLSFLKTIQEVAGYVLIALNTVERIPLENLQIIRGNMYYENSYALAVLSNYDANKTGLKELPMRNLQEILHGAVRFSNNPALCNVESIQWRDIVSSDFLSNMSMDFQNHLGSCQKCDPSCPNGSCWGAGEENCQKLTKIICAQQCSGRCRGKSPSDCCHNQCAAGCTGPRESDCLVCRKFRDEATCKDTCPPLMLYNPTTYQMDVNPEGKYSFGATCVKKCPRNYVVTDHGSCVRACGADSYEMEEDGVRKCKKCEGPCRKVCNGIGIGEFKDSLSINATNIKHFKNCTSISGDLHILPVAFRGDSFTHTPPLDPQELDILKTVKEITGFLLIQAWPENRTDLHAFENLEIIRGRTKQHGQFSLAVVSLNITSLGLRSLKEISDGDVIISGNKNLCYANTINWKKLFGTSGQKTKIISNRGENSCKATGQVCHALCSPEGCWGPEPRDCVSCRNVSRGRECVDKCNLLEGEPREFVENSECIQCHPECLPQAMNITCTGRGPDNCIQCAHYIDGPHCVKTCPAGVMGENNTLVWKYADAGHVCHLCHPNCTYGCTGPGLEGCPTNGPKIPSIATGMVGALLLLLVVALGIGLFMRRRHIVRKRTLRRLLQERELVEPLTPSGEAPNQALLRILKETEFKKIKVLGSGAFGTVYKGLWIPEGEKVKIPVAIKELREATSPKANKEILDEAYVMASVDNPHVCRLLGICLTSTVQLITQLMPFGCLLDYVREHKDNIGSQYLLNWCVQIAKGMNYLEDRRLVHRDLAARNVLVKTPQHVKITDFGLAKLLGAEEKEYHAEGGKVPIKWMALESILHRIYTHQSDVWSYGVTVWELMTFGSKPYDGIPASEISSILEKGERLPQPPICTIDVYMIMVKCWMIDADSRPKFRELIIEFSKMARDPQRYLVIQGDERMHLPSPTDSNFYRALMDEEDMDDVVDADEYLIPQQGFFSSPSTSRTPLLSSLSATSNNSTVACIDRNGLQSCPIKEDSFLQRYSSDPTGALTEDSIDDTFLPVPEYINQSVPKRPAGSVQNPVYHNQPLNPAPSRDPHYQDPHSTAVGNPEYLNTVQPTCVNSTFDSPAHWAQKGSHQISLDNPDYQQDFFPKEAKPNGIFKGSTAENAEYLRVAPQSSEFIGA

> <PDB ID(s) of Target Chain>
1IVO,1M14,1M17,1MOX,1XKK,1Z9I,2GS2,2GS6,2ITW,2ITX,2ITY,2J5E,2J5F,2J6M,2RF9,2RGP,3B2V,3BEL,3GOP,3POZ,3QWQ,3VJO,3W2O,3W2P,3W2Q,3W2R,3W2S,3W32,3W33,4G5J,4I23,4JQ7,4JQ8,4JR3,4JRV,4KRO,4LI5,4RJ4,4RJ5,4RJ6,4RJ7,4RJ8,4TKS,4UIP,4UV7,4WKQ,4WRG,4ZAU,5C8K,5C8M,5C8N,5CAL,5CAN,5CAO,5CAP,5CAQ,5CAS,5CAU,5CAV,5EDP,5EDQ,5EDR,5EM5,5EM6,5EM7,5EM8,5FED,5GNK,5HCX,5HCY,5HCZ,5HIB,5HIC,5UGB,5WB7,5WB8,5Y25,6S89,6S8A

> <UniProt (SwissProt) Recommended Name of Target Chain>
Epidermal growth factor receptor

> <UniProt (SwissProt) Entry Name of Target Chain>
EGFR_HUMAN

> <UniProt (SwissProt) Primary ID of Target Chain>
P00533

> <UniProt (SwissProt) Secondary ID(s) of Target Chain>
O00688,O00732,P06268,Q14225,Q68GS5,Q92795,Q9BZS2,Q9GZX1,Q9H2C9,Q9H3C9,Q9UMD7,Q9UMD8,Q9UMG5

> <UniProt (SwissProt) Alternative ID(s) of Target Chain>


> <UniProt (TrEMBL) Submitted Name of Target Chain>


> <UniProt (TrEMBL) Entry Name of Target Chain>


> <UniProt (TrEMBL) Primary ID of Target Chain>


> <UniProt (TrEMBL) Secondary ID(s) of Target Chain>


> <UniProt (TrEMBL) Alternative ID(s) of Target Chain>


> <training label>
5.04576

> <i_lp_mmshare_version>
54117

> <s_epik_input>
W2NIXTFzYyhbQ0gzXSluYzEtYzJbY0hdYyhbY0hdW2NIXVtjSF0yKVtOSF1jM25jKFtDSDNdKW5jKGMzNClbY0hdYyhPW0NIMl1bQ0gzXSljKFtjSF00KU9bQ0gyXVtDSDNd

> <s_epik_cmdline>
J2VwaWtfcHl0aG9uJywgJy1waHQnLCAnMC4xJywgJy1waCcsICc3LjQnLCAnLXRuJywgJzgnLCAnLW1hJywgJzIwMCcsICctaW1hZScsICc8aW5maWxlLm1hZT4nLCAnLW9tYWUnLCAnPG91dGZpbGUubWFlPic=

> <r_lp_tautomer_probability>
1

> <r_epik_Ionization_Penalty>
  0.0075

> <r_epik_Ionization_Penalty_Charging>
  0.0000

> <r_epik_Ionization_Penalty_Neutral>
  0.0075

> <r_epik_State_Penalty>
  0.0000

> <r_epik_Charging_Adjusted_Penalty>
0

> <i_epik_Tot_Q>
0

> <i_epik_Tot_abs_Q>
0

> <i_f3d_flags>
0

> <s_lp_Force_Field>
OPLS_2005

> <r_lp_Energy>
20.260944

> <b_lp_Chiralities_Consistent>
1

> <s_lp_Variant>
BindingDB_50117960-1

> <s_i_glide_gridfile>
struct_1_site_1

> <i_i_glide_lignum>
27

> <i_i_glide_rotatable_bonds>
7

> <r_i_docking_score>
-7.43646245745832

> <r_i_glide_ligand_efficiency>
-0.247882081915277

> <r_i_glide_ligand_efficiency_sa>
-0.770227261697435

> <r_i_glide_ligand_efficiency_ln>
-1.68964529708274

> <r_i_glide_gscore>
-7.43646245745832

> <r_i_glide_lipo>
-3.31370333920152

> <r_i_glide_hbond>
-0.19127648770937

> <r_i_glide_metal>
0

> <r_i_glide_rewards>
-1.73620033295673

> <r_i_glide_evdw>
-39.6277618408203

> <r_i_glide_ecoul>
-5.15679025650024

> <r_i_glide_erotb>
0.559624332925353

> <r_i_glide_esite>
0

> <r_i_glide_emodel>
-45.7502761904908

> <r_i_glide_energy>
-44.7845520973206

> <r_i_glide_einternal>
5.36346292495728

> <i_i_glide_confnum>
50

> <i_i_glide_posenum>
389

> <r_i_glide_eff_state_penalty>
0

> <PMID>
12190310

> <r_glide_shape_similarity>
0.807902038097382

> <s_m_subgroup_title>
505 training

> <s_m_subgroupid>
pocket_pv

> <b_m_subgroup_collapsed>
0

$$$$
BindingDB_50102071_mol_1
                    3D
 Schrodinger Suite 2021-2.
 50 53  0  0  1  0            999 V2000
   22.0718   -0.1715   53.4970 C   0  0  0  0  0  0
   23.4386   -0.0997   53.8677 C   0  0  0  0  0  0
   21.2655   -1.1197   54.1833 C   0  0  0  0  0  0
   21.5148    0.6411   52.4797 C   0  0  0  0  0  0
   23.9423   -0.9047   54.8295 N   0  0  0  0  0  0
   19.8979   -1.2162   53.8425 C   0  0  0  0  0  0
   21.9127    3.5406   45.6788 N   0  0  0  0  0  0
   20.5609    3.8856   47.4540 N   0  0  0  0  0  0
   24.2864    0.8515   53.2730 N   0  0  0  0  0  0
   20.1487    0.5179   52.1342 C   0  0  0  0  0  0
   19.3246   -0.3940   52.8364 C   0  0  0  0  0  0
   21.7898    3.5367   47.0109 C   0  0  0  0  0  0
   27.9129   -0.0732   53.3858 C   0  0  0  0  0  0
   21.8008   -1.9061   55.1451 N   0  0  0  0  0  0
   26.5107   -0.2001   53.3283 C   0  0  0  0  0  0
   23.0979   -1.7497   55.4160 C   0  0  0  0  0  0
   25.6834    0.9498   53.3401 C   0  0  0  0  0  0
   19.5308    1.2877   51.1759 O   0  0  0  0  0  0
   20.6471    3.9332   45.2161 C   0  0  0  0  0  0
   28.4927    1.2124   53.4589 C   0  0  0  0  0  0
   19.8045    4.1254   46.2984 C   0  0  0  0  0  0
   20.1187    4.0609   48.8394 C   0  0  0  0  0  0
   27.6772    2.3651   53.4311 C   0  0  0  0  0  0
   19.3361    2.8731   49.4571 C   0  0  2  0  0  0
   28.9098   -1.4899   53.3733 Cl  0  0  0  0  0  0
   20.2316    1.7415   50.0211 C   0  0  0  0  0  0
   26.2746    2.2337   53.3693 C   0  0  0  0  0  0
   29.8345    1.3271   53.5802 F   0  0  0  0  0  0
   17.9880   -0.4151   52.4691 O   0  0  0  0  0  0
   18.3785    2.3376   48.5568 O   0  0  0  0  0  0
   17.0643   -1.1502   53.2590 C   0  0  0  0  0  0
   22.1375    1.3565   51.9692 H   0  0  0  0  0  0
   19.2918   -1.9232   54.3868 H   0  0  0  0  0  0
   23.8184    1.6301   52.8318 H   0  0  0  0  0  0
   22.6076    3.3014   47.6760 H   0  0  0  0  0  0
   26.0759   -1.1869   53.2714 H   0  0  0  0  0  0
   23.5122   -2.3963   56.1744 H   0  0  0  0  0  0
   20.4438    4.0325   44.1599 H   0  0  0  0  0  0
   18.7674    4.4291   46.3473 H   0  0  0  0  0  0
   20.9858    4.3123   49.4527 H   0  0  0  0  0  0
   19.4798    4.9461   48.8606 H   0  0  0  0  0  0
   28.1258    3.3476   53.4786 H   0  0  0  0  0  0
   18.7670    3.2998   50.2841 H   0  0  0  0  0  0
   20.3675    0.9356   49.2966 H   0  0  0  0  0  0
   21.2187    2.1374   50.2621 H   0  0  0  0  0  0
   25.6639    3.1261   53.3612 H   0  0  0  0  0  0
   18.8084    1.8371   47.8764 H   0  0  0  0  0  0
   16.0511   -0.9682   52.9021 H   0  0  0  0  0  0
   17.2551   -2.2219   53.1874 H   0  0  0  0  0  0
   17.1082   -0.8518   54.3080 H   0  0  0  0  0  0
  1  2  2  0  0  0
  1  3  1  0  0  0
  1  4  1  0  0  0
  2  5  1  0  0  0
  2  9  1  0  0  0
  3  6  1  0  0  0
  3 14  2  0  0  0
  4 10  2  0  0  0
  4 32  1  0  0  0
  5 16  2  0  0  0
  6 11  2  0  0  0
  6 33  1  0  0  0
  7 12  2  0  0  0
  7 19  1  0  0  0
  8 12  1  0  0  0
  8 21  1  0  0  0
  8 22  1  0  0  0
  9 17  1  0  0  0
  9 34  1  0  0  0
 10 11  1  0  0  0
 10 18  1  0  0  0
 11 29  1  0  0  0
 12 35  1  0  0  0
 13 15  2  0  0  0
 13 20  1  0  0  0
 13 25  1  0  0  0
 14 16  1  0  0  0
 15 17  1  0  0  0
 15 36  1  0  0  0
 16 37  1  0  0  0
 17 27  2  0  0  0
 18 26  1  0  0  0
 19 21  2  0  0  0
 19 38  1  0  0  0
 20 23  2  0  0  0
 20 28  1  0  0  0
 21 39  1  0  0  0
 22 24  1  0  0  0
 22 40  1  0  0  0
 22 41  1  0  0  0
 23 27  1  0  0  0
 23 42  1  0  0  0
 24 26  1  0  0  0
 24 30  1  0  0  0
 24 43  1  0  0  0
 26 44  1  0  0  0
 26 45  1  0  0  0
 27 46  1  0  0  0
 29 31  1  0  0  0
 30 47  1  0  0  0
 31 48  1  0  0  0
 31 49  1  0  0  0
 31 50  1  0  0  0
M  END
> <s_m_entry_id>
320

> <s_m_entry_name>
pocket_pv.131

> <s_m_Source_Path>
/home/bortolaa/Project/GT/mario-master/docking/set505protein_struct_1_site_1_set505ligs_train

> <s_m_Source_File>
pocket_pv.maegz

> <i_m_Source_File_Index>
131

> <From>
www.bindingDB.org

> <BindingDB Reactant_set_id>
50733023

> <Ligand InChI>
InChI=1S/C21H19ClFN5O3/c1-30-19-8-18-15(7-20(19)31-10-14(29)9-28-5-4-24-12-28)21(26-11-25-18)27-13-2-3-17(23)16(22)6-13/h2-8,11-12,14,29H,9-10H2,1H3,(H,25,26,27)

> <Ligand InChI Key>
VXAFUEXPWHBEQW-UHFFFAOYSA-N

> <BindingDB MonomerID>
50102071

> <BindingDB Ligand Name>
1-[4-(3-Chloro-4-fluoro-phenylamino)-7-methoxy-quinazolin-6-yloxy]-3-imidazol-1-yl-propan-2-ol::CHEMBL60826

> <Target Name Assigned by Curator or DataSource>
Epidermal growth factor receptor

> <Target Source Organism According to Curator or DataSource>
Homo sapiens

> <Ki (nM)>


> <Kd (nM)>


> <EC50 (nM)>


> <kon (M-1-s-1)>


> <koff (s-1)>


> <pH>


> <Temp C>


> <Curation/DataSource>
ChEMBL

> <Article DOI>
10.1016/s0960-894x(01)00344-4

> <PubChem AID>


> <Patent Number>


> <Authors>
Barker, AJ; Gibson, KH; Grundy, W; Godfrey, AA; Barlow, JJ; Healy, MP; Woodburn, JR; Ashton, SE; Curry, BJ; Scarlett, L; Henthorn, L; Richards, L

> <Institution>
AstraZeneca

> <Link to Ligand in BindingDB>
http://www.bindingdb.org/bind/chemsearch/marvin/MolStructure.jsp?monomerid=50102071

> <Link to Ligand-Target Pair in BindingDB>
http://www.bindingdb.org/jsp/dbsearch/PrimarySearch_ki.jsp?energyterm=kJ/mole&tag=r21&monomerid=50102071&enzyme=Epidermal+growth+factor+receptor&column=ki&startPg=0&Increment=50&submit=Search

> <Ligand HET ID in PDB>


> <PDB ID(s) for Ligand-Target Complex>


> <PubChem CID>
44300081

> <PubChem SID>
103998628

> <ChEBI ID of Ligand>


> <ChEMBL ID of Ligand>
CHEMBL60826

> <DrugBank ID of Ligand>


> <IUPHAR_GRAC ID of Ligand>


> <KEGG ID of Ligand>


> <ZINC ID of Ligand>
ZINC29565943

> <Number of Protein Chains in Target (>
1

> <BindingDB Target Chain Sequence>
MRPSGTAGAALLALLAALCPASRALEEKKVCQGTSNKLTQLGTFEDHFLSLQRMFNNCEVVLGNLEITYVQRNYDLSFLKTIQEVAGYVLIALNTVERIPLENLQIIRGNMYYENSYALAVLSNYDANKTGLKELPMRNLQEILHGAVRFSNNPALCNVESIQWRDIVSSDFLSNMSMDFQNHLGSCQKCDPSCPNGSCWGAGEENCQKLTKIICAQQCSGRCRGKSPSDCCHNQCAAGCTGPRESDCLVCRKFRDEATCKDTCPPLMLYNPTTYQMDVNPEGKYSFGATCVKKCPRNYVVTDHGSCVRACGADSYEMEEDGVRKCKKCEGPCRKVCNGIGIGEFKDSLSINATNIKHFKNCTSISGDLHILPVAFRGDSFTHTPPLDPQELDILKTVKEITGFLLIQAWPENRTDLHAFENLEIIRGRTKQHGQFSLAVVSLNITSLGLRSLKEISDGDVIISGNKNLCYANTINWKKLFGTSGQKTKIISNRGENSCKATGQVCHALCSPEGCWGPEPRDCVSCRNVSRGRECVDKCNLLEGEPREFVENSECIQCHPECLPQAMNITCTGRGPDNCIQCAHYIDGPHCVKTCPAGVMGENNTLVWKYADAGHVCHLCHPNCTYGCTGPGLEGCPTNGPKIPSIATGMVGALLLLLVVALGIGLFMRRRHIVRKRTLRRLLQERELVEPLTPSGEAPNQALLRILKETEFKKIKVLGSGAFGTVYKGLWIPEGEKVKIPVAIKELREATSPKANKEILDEAYVMASVDNPHVCRLLGICLTSTVQLITQLMPFGCLLDYVREHKDNIGSQYLLNWCVQIAKGMNYLEDRRLVHRDLAARNVLVKTPQHVKITDFGLAKLLGAEEKEYHAEGGKVPIKWMALESILHRIYTHQSDVWSYGVTVWELMTFGSKPYDGIPASEISSILEKGERLPQPPICTIDVYMIMVKCWMIDADSRPKFRELIIEFSKMARDPQRYLVIQGDERMHLPSPTDSNFYRALMDEEDMDDVVDADEYLIPQQGFFSSPSTSRTPLLSSLSATSNNSTVACIDRNGLQSCPIKEDSFLQRYSSDPTGALTEDSIDDTFLPVPEYINQSVPKRPAGSVQNPVYHNQPLNPAPSRDPHYQDPHSTAVGNPEYLNTVQPTCVNSTFDSPAHWAQKGSHQISLDNPDYQQDFFPKEAKPNGIFKGSTAENAEYLRVAPQSSEFIGA

> <PDB ID(s) of Target Chain>
1IVO,1M14,1M17,1MOX,1XKK,1Z9I,2GS2,2GS6,2ITW,2ITX,2ITY,2J5E,2J5F,2J6M,2RF9,2RGP,3B2V,3BEL,3GOP,3POZ,3QWQ,3VJO,3W2O,3W2P,3W2Q,3W2R,3W2S,3W32,3W33,4G5J,4I23,4JQ7,4JQ8,4JR3,4JRV,4KRO,4LI5,4RJ4,4RJ5,4RJ6,4RJ7,4RJ8,4TKS,4UIP,4UV7,4WKQ,4WRG,4ZAU,5C8K,5C8M,5C8N,5CAL,5CAN,5CAO,5CAP,5CAQ,5CAS,5CAU,5CAV,5EDP,5EDQ,5EDR,5EM5,5EM6,5EM7,5EM8,5FED,5GNK,5HCX,5HCY,5HCZ,5HIB,5HIC,5UGB,5WB7,5WB8,5Y25,6S89,6S8A

> <UniProt (SwissProt) Recommended Name of Target Chain>
Epidermal growth factor receptor

> <UniProt (SwissProt) Entry Name of Target Chain>
EGFR_HUMAN

> <UniProt (SwissProt) Primary ID of Target Chain>
P00533

> <UniProt (SwissProt) Secondary ID(s) of Target Chain>
O00688,O00732,P06268,Q14225,Q68GS5,Q92795,Q9BZS2,Q9GZX1,Q9H2C9,Q9H3C9,Q9UMD7,Q9UMD8,Q9UMG5

> <UniProt (SwissProt) Alternative ID(s) of Target Chain>


> <UniProt (TrEMBL) Submitted Name of Target Chain>


> <UniProt (TrEMBL) Entry Name of Target Chain>


> <UniProt (TrEMBL) Primary ID of Target Chain>


> <UniProt (TrEMBL) Secondary ID(s) of Target Chain>


> <UniProt (TrEMBL) Alternative ID(s) of Target Chain>


> <training label>
8.09691

> <i_lp_mmshare_version>
54117

> <s_epik_input>
RmMxW2NIXVtjSF1jKFtjSF1jMUNsKVtOSF1jMm5bY0hdbmMoYzIzKVtjSF1jKE9bQ0gzXSljKFtjSF0zKU9bQ0gyXVtDQEhdKFtPSF0pW0NIMl1uNFtjSF1uW2NIXVtjSF00

> <s_epik_cmdline>
J2VwaWtfcHl0aG9uJywgJy1waHQnLCAnMC4xJywgJy1waCcsICc3LjQnLCAnLXRuJywgJzgnLCAnLW1hJywgJzIwMCcsICctaW1hZScsICc8aW5maWxlLm1hZT4nLCAnLW9tYWUnLCAnPG91dGZpbGUubWFlPic=

> <r_lp_tautomer_probability>
0.999978000241998

> <r_epik_Ionization_Penalty>
  0.2491

> <r_epik_Ionization_Penalty_Charging>
  0.2486

> <r_epik_Ionization_Penalty_Neutral>
  0.0005

> <r_epik_State_Penalty>
  0.2398

> <r_epik_Charging_Adjusted_Penalty>
0.488403027331721

> <i_epik_Tot_Q>
0

> <i_epik_Tot_abs_Q>
0

> <i_f3d_flags>
0

> <s_lp_Force_Field>
OPLS_2005

> <r_lp_Energy>
23.980077

> <b_lp_Chiralities_Consistent>
1

> <s_lp_Variant>
BindingDB_50102071_mol_1-1

> <s_i_glide_gridfile>
struct_1_site_1

> <i_i_glide_lignum>
240

> <i_i_glide_rotatable_bonds>
9

> <r_i_docking_score>
-7.4255024655144

> <r_i_glide_ligand_efficiency>
-0.239532337597239

> <r_i_glide_ligand_efficiency_sa>
-0.752462250088734

> <r_i_glide_ligand_efficiency_ln>
-1.67467837029462

> <r_i_glide_gscore>
-7.6653024655144

> <r_i_glide_lipo>
-2.9516076140721

> <r_i_glide_hbond>
-0.32

> <r_i_glide_metal>
0

> <r_i_glide_rewards>
-1.66064514657352

> <r_i_glide_evdw>
-45.6547546386719

> <r_i_glide_ecoul>
-6.61828756332397

> <r_i_glide_erotb>
0.608957686275374

> <r_i_glide_esite>
-0.0665265247119614

> <r_i_glide_emodel>
-58.2412935716123

> <r_i_glide_energy>
-52.2730422019958

> <r_i_glide_einternal>
4.82004308700562

> <i_i_glide_confnum>
123

> <i_i_glide_posenum>
54

> <r_i_glide_eff_state_penalty>
0.2398

> <IC50 (nM)>
8

> <PMID>
11459659

> <r_glide_shape_similarity>
0.807164430618286

> <s_m_subgroup_title>
505 training

> <s_m_subgroupid>
pocket_pv

> <b_m_subgroup_collapsed>
0

$$$$
BindingDB_50308829_mol_1
                    3D
 Schrodinger Suite 2021-2.
 44 46  0  0  1  0            999 V2000
   20.0796    0.5022   52.2123 C   0  0  0  0  0  0
   19.3281   -0.4537   52.9012 C   0  0  0  0  0  0
   19.9250   -1.2515   53.8731 C   0  0  0  0  0  0
   21.4621    0.6406   52.5022 C   0  0  0  0  0  0
   22.0629   -0.1680   53.4937 C   0  0  0  0  0  0
   21.2818   -1.1211   54.1855 C   0  0  0  0  0  0
   21.8197   -1.8934   55.1421 N   0  0  0  0  0  0
   23.1063   -1.7189   55.4044 C   0  0  0  0  0  0
   23.9361   -0.8747   54.8134 N   0  0  0  0  0  0
   23.4299   -0.0882   53.8514 C   0  0  0  0  0  0
   24.2861    0.8516   53.2660 N   0  0  0  0  0  0
   25.6809    0.9478   53.3411 C   0  0  0  0  0  0
   26.5132   -0.1876   53.3341 C   0  0  0  0  0  0
   27.9099   -0.0486   53.3839 C   0  0  0  0  0  0
   28.4890    1.2253   53.4382 C   0  0  0  0  0  0
   27.6652    2.3603   53.4253 C   0  0  0  0  0  0
   26.2696    2.2236   53.3678 C   0  0  0  0  0  0
   28.9079   -1.4447   53.3730 Cl  0  0  0  0  0  0
   19.3550    1.2544   51.3215 O   0  0  0  0  0  0
   18.0014   -0.6064   52.6291 O   0  0  0  0  0  0
   20.0172    2.1590   50.4697 C   0  0  0  0  0  0
   20.5791    1.3788   49.2896 C   0  0  0  0  0  0
   21.6218    2.1703   48.5098 C   0  0  0  0  0  0
   21.0296    3.3326   47.7454 C   0  0  0  0  0  0
   21.2928    3.5379   46.4739 C   0  0  0  0  0  0
   21.6019    3.7572   45.2187 C   0  0  0  0  0  0
   19.3237   -1.9743   54.4021 H   0  0  0  0  0  0
   22.0613    1.3617   51.9735 H   0  0  0  0  0  0
   23.5263   -2.3462   56.1736 H   0  0  0  0  0  0
   23.8169    1.6274   52.8355 H   0  0  0  0  0  0
   26.0823   -1.1768   53.2770 H   0  0  0  0  0  0
   29.5642    1.3370   53.4768 H   0  0  0  0  0  0
   28.0976    3.3509   53.4572 H   0  0  0  0  0  0
   25.6558    3.1145   53.3546 H   0  0  0  0  0  0
   17.7228    0.0093   51.9675 H   0  0  0  0  0  0
   20.7733    2.7446   50.9911 H   0  0  0  0  0  0
   19.2823    2.8817   50.1145 H   0  0  0  0  0  0
   19.7661    1.0629   48.6345 H   0  0  0  0  0  0
   21.0542    0.4629   49.6410 H   0  0  0  0  0  0
   22.1399    1.5016   47.8187 H   0  0  0  0  0  0
   22.3854    2.5506   49.1890 H   0  0  0  0  0  0
   20.3959    4.0138   48.2900 H   0  0  0  0  0  0
   22.4697    4.3414   44.9485 H   0  0  0  0  0  0
   21.0009    3.3633   44.4125 H   0  0  0  0  0  0
  1  2  2  0  0  0
  1  4  1  0  0  0
  1 19  1  0  0  0
  2  3  1  0  0  0
  2 20  1  0  0  0
  3  6  2  0  0  0
  3 27  1  0  0  0
  4  5  2  0  0  0
  4 28  1  0  0  0
  5  6  1  0  0  0
  5 10  1  0  0  0
  6  7  1  0  0  0
  7  8  2  0  0  0
  8  9  1  0  0  0
  8 29  1  0  0  0
  9 10  2  0  0  0
 10 11  1  0  0  0
 11 12  1  0  0  0
 11 30  1  0  0  0
 12 13  2  0  0  0
 12 17  1  0  0  0
 13 14  1  0  0  0
 13 31  1  0  0  0
 14 15  2  0  0  0
 14 18  1  0  0  0
 15 16  1  0  0  0
 15 32  1  0  0  0
 16 17  2  0  0  0
 16 33  1  0  0  0
 17 34  1  0  0  0
 19 21  1  0  0  0
 20 35  1  0  0  0
 21 22  1  0  0  0
 21 36  1  0  0  0
 21 37  1  0  0  0
 22 23  1  0  0  0
 22 38  1  0  0  0
 22 39  1  0  0  0
 23 24  1  0  0  0
 23 40  1  0  0  0
 23 41  1  0  0  0
 24 25  2  0  0  0
 24 42  1  0  0  0
 25 26  2  0  0  0
 26 43  1  0  0  0
 26 44  1  0  0  0
M  END
> <s_m_entry_id>
321

> <s_m_entry_name>
pocket_pv.132

> <s_m_Source_Path>
/home/bortolaa/Project/GT/mario-master/docking/set505protein_struct_1_site_1_set505ligs_train

> <s_m_Source_File>
pocket_pv.maegz

> <i_m_Source_File_Index>
132

> <From>
www.bindingDB.org

> <BindingDB Reactant_set_id>
50554732

> <Ligand InChI>
InChI=1S/C20H18ClN3O2/c1-2-3-4-5-9-26-19-11-16-17(12-18(19)25)22-13-23-20(16)24-15-8-6-7-14(21)10-15/h3,6-8,10-13,25H,1,4-5,9H2,(H,22,23,24)

> <Ligand InChI Key>
XWNHQWMHDORVBC-UHFFFAOYSA-N

> <BindingDB MonomerID>
50308829

> <BindingDB Ligand Name>
4-(3'-Chlorophenylamino)-6-(hexa-4,5-dienyloxy)-7-methoxyquinazoline::CHEMBL592215

> <Target Name Assigned by Curator or DataSource>
Epidermal growth factor receptor

> <Target Source Organism According to Curator or DataSource>
Homo sapiens

> <Ki (nM)>


> <Kd (nM)>


> <EC50 (nM)>


> <kon (M-1-s-1)>


> <koff (s-1)>


> <pH>


> <Temp C>


> <Curation/DataSource>
ChEMBL

> <Article DOI>
10.1016/j.bmc.2009.11.035

> <PubChem AID>


> <Patent Number>


> <Authors>
Ban, HS; Tanaka, Y; Nabeyama, W; Hatori, M; Nakamura, H

> <Institution>
Gakushuin University

> <Link to Ligand in BindingDB>
http://www.bindingdb.org/bind/chemsearch/marvin/MolStructure.jsp?monomerid=50308829

> <Link to Ligand-Target Pair in BindingDB>
http://www.bindingdb.org/jsp/dbsearch/PrimarySearch_ki.jsp?energyterm=kJ/mole&tag=r21&monomerid=50308829&enzyme=Epidermal+growth+factor+receptor&column=ki&startPg=0&Increment=50&submit=Search

> <Ligand HET ID in PDB>


> <PDB ID(s) for Ligand-Target Complex>


> <PubChem CID>
46229766

> <PubChem SID>
104163190

> <ChEBI ID of Ligand>


> <ChEMBL ID of Ligand>
CHEMBL592215

> <DrugBank ID of Ligand>


> <IUPHAR_GRAC ID of Ligand>


> <KEGG ID of Ligand>


> <ZINC ID of Ligand>
ZINC45337771

> <Number of Protein Chains in Target (>
1

> <BindingDB Target Chain Sequence>
MRPSGTAGAALLALLAALCPASRALEEKKVCQGTSNKLTQLGTFEDHFLSLQRMFNNCEVVLGNLEITYVQRNYDLSFLKTIQEVAGYVLIALNTVERIPLENLQIIRGNMYYENSYALAVLSNYDANKTGLKELPMRNLQEILHGAVRFSNNPALCNVESIQWRDIVSSDFLSNMSMDFQNHLGSCQKCDPSCPNGSCWGAGEENCQKLTKIICAQQCSGRCRGKSPSDCCHNQCAAGCTGPRESDCLVCRKFRDEATCKDTCPPLMLYNPTTYQMDVNPEGKYSFGATCVKKCPRNYVVTDHGSCVRACGADSYEMEEDGVRKCKKCEGPCRKVCNGIGIGEFKDSLSINATNIKHFKNCTSISGDLHILPVAFRGDSFTHTPPLDPQELDILKTVKEITGFLLIQAWPENRTDLHAFENLEIIRGRTKQHGQFSLAVVSLNITSLGLRSLKEISDGDVIISGNKNLCYANTINWKKLFGTSGQKTKIISNRGENSCKATGQVCHALCSPEGCWGPEPRDCVSCRNVSRGRECVDKCNLLEGEPREFVENSECIQCHPECLPQAMNITCTGRGPDNCIQCAHYIDGPHCVKTCPAGVMGENNTLVWKYADAGHVCHLCHPNCTYGCTGPGLEGCPTNGPKIPSIATGMVGALLLLLVVALGIGLFMRRRHIVRKRTLRRLLQERELVEPLTPSGEAPNQALLRILKETEFKKIKVLGSGAFGTVYKGLWIPEGEKVKIPVAIKELREATSPKANKEILDEAYVMASVDNPHVCRLLGICLTSTVQLITQLMPFGCLLDYVREHKDNIGSQYLLNWCVQIAKGMNYLEDRRLVHRDLAARNVLVKTPQHVKITDFGLAKLLGAEEKEYHAEGGKVPIKWMALESILHRIYTHQSDVWSYGVTVWELMTFGSKPYDGIPASEISSILEKGERLPQPPICTIDVYMIMVKCWMIDADSRPKFRELIIEFSKMARDPQRYLVIQGDERMHLPSPTDSNFYRALMDEEDMDDVVDADEYLIPQQGFFSSPSTSRTPLLSSLSATSNNSTVACIDRNGLQSCPIKEDSFLQRYSSDPTGALTEDSIDDTFLPVPEYINQSVPKRPAGSVQNPVYHNQPLNPAPSRDPHYQDPHSTAVGNPEYLNTVQPTCVNSTFDSPAHWAQKGSHQISLDNPDYQQDFFPKEAKPNGIFKGSTAENAEYLRVAPQSSEFIGA

> <PDB ID(s) of Target Chain>
1IVO,1M14,1M17,1MOX,1XKK,1Z9I,2GS2,2GS6,2ITW,2ITX,2ITY,2J5E,2J5F,2J6M,2RF9,2RGP,3B2V,3BEL,3GOP,3POZ,3QWQ,3VJO,3W2O,3W2P,3W2Q,3W2R,3W2S,3W32,3W33,4G5J,4I23,4JQ7,4JQ8,4JR3,4JRV,4KRO,4LI5,4RJ4,4RJ5,4RJ6,4RJ7,4RJ8,4TKS,4UIP,4UV7,4WKQ,4WRG,4ZAU,5C8K,5C8M,5C8N,5CAL,5CAN,5CAO,5CAP,5CAQ,5CAS,5CAU,5CAV,5EDP,5EDQ,5EDR,5EM5,5EM6,5EM7,5EM8,5FED,5GNK,5HCX,5HCY,5HCZ,5HIB,5HIC,5UGB,5WB7,5WB8,5Y25,6S89,6S8A

> <UniProt (SwissProt) Recommended Name of Target Chain>
Epidermal growth factor receptor

> <UniProt (SwissProt) Entry Name of Target Chain>
EGFR_HUMAN

> <UniProt (SwissProt) Primary ID of Target Chain>
P00533

> <UniProt (SwissProt) Secondary ID(s) of Target Chain>
O00688,O00732,P06268,Q14225,Q68GS5,Q92795,Q9BZS2,Q9GZX1,Q9H2C9,Q9H3C9,Q9UMD7,Q9UMD8,Q9UMG5

> <UniProt (SwissProt) Alternative ID(s) of Target Chain>


> <UniProt (TrEMBL) Submitted Name of Target Chain>


> <UniProt (TrEMBL) Entry Name of Target Chain>


> <UniProt (TrEMBL) Primary ID of Target Chain>


> <UniProt (TrEMBL) Secondary ID(s) of Target Chain>


> <UniProt (TrEMBL) Alternative ID(s) of Target Chain>


> <training label>
7.54516

> <i_lp_mmshare_version>
54117

> <s_epik_input>
W0NIMl09Qz1bQ0hdW0NIMl1bQ0gyXVtDSDJdT2MoW2NIXTEpYyhbT0hdKVtjSF1jKGMxMiluW2NIXW5jMltOSF1jM1tjSF1jKENsKVtjSF1bY0hdW2NIXTM=

> <s_epik_cmdline>
J2VwaWtfcHl0aG9uJywgJy1waHQnLCAnMC4xJywgJy1waCcsICc3LjQnLCAnLXRuJywgJzgnLCAnLW1hJywgJzIwMCcsICctaW1hZScsICc8aW5maWxlLm1hZT4nLCAnLW9tYWUnLCAnPG91dGZpbGUubWFlPic=

> <r_epik_Ionization_Penalty>
  0.0900

> <r_epik_Ionization_Penalty_Charging>
  0.0000

> <r_epik_Ionization_Penalty_Neutral>
  0.0900

> <r_epik_State_Penalty>
  0.0803

> <r_epik_Charging_Adjusted_Penalty>
0.0802520784523958

> <i_epik_Tot_Q>
0

> <i_epik_Tot_abs_Q>
0

> <i_f3d_flags>
0

> <s_lp_Force_Field>
OPLS_2005

> <r_lp_Energy>
-4.768876

> <b_lp_Chiralities_Consistent>
1

> <s_lp_Variant>
BindingDB_50308829_mol_1-1

> <s_i_glide_gridfile>
struct_1_site_1

> <i_i_glide_lignum>
201

> <i_i_glide_rotatable_bonds>
8

> <r_i_docking_score>
-7.42292538045008

> <r_i_glide_ligand_efficiency>
-0.285497130017311

> <r_i_glide_ligand_efficiency_sa>
-0.845784124299322

> <r_i_glide_ligand_efficiency_ln>
-1.74324966899391

> <r_i_glide_gscore>
-7.50322538045008

> <r_i_glide_lipo>
-3.25357265919886

> <r_i_glide_hbond>
-0.32

> <r_i_glide_metal>
0

> <r_i_glide_rewards>
-2.07737939172906

> <r_i_glide_evdw>
-42.7511711120605

> <r_i_glide_ecoul>
-4.74226903915405

> <r_i_glide_erotb>
0.996625581953984

> <r_i_glide_esite>
0

> <r_i_glide_emodel>
-50.4092545031955

> <r_i_glide_energy>
-47.4934401512146

> <r_i_glide_einternal>
5.13579368591309

> <i_i_glide_confnum>
145

> <i_i_glide_posenum>
363

> <r_i_glide_eff_state_penalty>
0.0803

> <IC50 (nM)>
28.5

> <PMID>
19969465

> <r_glide_shape_similarity>
0.817986965179443

> <s_m_subgroup_title>
505 training

> <s_m_subgroupid>
pocket_pv

> <b_m_subgroup_collapsed>
0

$$$$
BindingDB_50095273_mol_1
                    3D
 Schrodinger Suite 2021-2.
 42 44  0  0  1  0            999 V2000
   22.0763   -0.1689   53.5033 C   0  0  0  0  0  0
   23.4381   -0.0983   53.8678 C   0  0  0  0  0  0
   21.2658   -1.1064   54.1775 C   0  0  0  0  0  0
   21.5299    0.6445   52.4967 C   0  0  0  0  0  0
   23.9357   -0.8980   54.8240 N   0  0  0  0  0  0
   19.9015   -1.1935   53.8292 C   0  0  0  0  0  0
   24.2896    0.8473   53.2781 N   0  0  0  0  0  0
   20.1790    0.5305   52.1367 C   0  0  0  0  0  0
   19.3541   -0.3725   52.8160 C   0  0  0  0  0  0
   21.7972   -1.8885   55.1352 N   0  0  0  0  0  0
   23.0893   -1.7338   55.4074 C   0  0  0  0  0  0
   25.6836    0.9477   53.3435 C   0  0  0  0  0  0
   26.5140   -0.1886   53.3341 C   0  0  0  0  0  0
   27.9098   -0.0515   53.3835 C   0  0  0  0  0  0
   19.6059    1.3044   51.1591 O   0  0  0  0  0  0
   18.0525   -0.3904   52.3801 O   0  0  0  0  0  0
   29.1110   -1.7527   53.3743 I   0  0  0  0  0  0
   27.6697    2.3581   53.4233 C   0  0  0  0  0  0
   26.2734    2.2233   53.3699 C   0  0  0  0  0  0
   28.4909    1.2225   53.4379 C   0  0  0  0  0  0
   20.3833    1.6160   50.0168 C   0  0  0  0  0  0
   17.0421   -0.8742   53.2304 C   0  0  0  0  0  0
   19.4652    2.3147   49.0145 C   0  0  0  0  0  0
   15.7166   -0.2745   52.7456 C   0  0  0  0  0  0
   22.1525    1.3606   51.9861 H   0  0  0  0  0  0
   19.2785   -1.9019   54.3529 H   0  0  0  0  0  0
   23.8242    1.6215   52.8360 H   0  0  0  0  0  0
   23.4980   -2.3742   56.1747 H   0  0  0  0  0  0
   26.0868   -1.1793   53.2848 H   0  0  0  0  0  0
   28.1094    3.3448   53.4544 H   0  0  0  0  0  0
   25.6625    3.1154   53.3614 H   0  0  0  0  0  0
   29.5663    1.3315   53.4793 H   0  0  0  0  0  0
   20.7908    0.7049   49.5736 H   0  0  0  0  0  0
   21.2131    2.2795   50.2619 H   0  0  0  0  0  0
   17.0113   -1.9635   53.1889 H   0  0  0  0  0  0
   17.2233   -0.5855   54.2644 H   0  0  0  0  0  0
   19.9998    2.5478   48.0936 H   0  0  0  0  0  0
   19.0706    3.2470   49.4211 H   0  0  0  0  0  0
   18.6191    1.6778   48.7560 H   0  0  0  0  0  0
   14.8874   -0.6157   53.3661 H   0  0  0  0  0  0
   15.7395    0.8142   52.7892 H   0  0  0  0  0  0
   15.5076   -0.5651   51.7159 H   0  0  0  0  0  0
  1  2  2  0  0  0
  1  3  1  0  0  0
  1  4  1  0  0  0
  2  5  1  0  0  0
  2  7  1  0  0  0
  3  6  1  0  0  0
  3 10  2  0  0  0
  4  8  2  0  0  0
  4 25  1  0  0  0
  5 11  2  0  0  0
  6  9  2  0  0  0
  6 26  1  0  0  0
  7 12  1  0  0  0
  7 27  1  0  0  0
  8  9  1  0  0  0
  8 15  1  0  0  0
  9 16  1  0  0  0
 10 11  1  0  0  0
 11 28  1  0  0  0
 12 13  2  0  0  0
 12 19  1  0  0  0
 13 14  1  0  0  0
 13 29  1  0  0  0
 14 17  1  0  0  0
 14 20  2  0  0  0
 15 21  1  0  0  0
 16 22  1  0  0  0
 18 19  2  0  0  0
 18 20  1  0  0  0
 18 30  1  0  0  0
 19 31  1  0  0  0
 20 32  1  0  0  0
 21 23  1  0  0  0
 21 33  1  0  0  0
 21 34  1  0  0  0
 22 24  1  0  0  0
 22 35  1  0  0  0
 22 36  1  0  0  0
 23 37  1  0  0  0
 23 38  1  0  0  0
 23 39  1  0  0  0
 24 40  1  0  0  0
 24 41  1  0  0  0
 24 42  1  0  0  0
M  END
> <s_m_entry_id>
322

> <s_m_entry_name>
pocket_pv.133

> <s_m_Source_Path>
/home/bortolaa/Project/GT/mario-master/docking/set505protein_struct_1_site_1_set505ligs_train

> <s_m_Source_File>
pocket_pv.maegz

> <i_m_Source_File_Index>
133

> <From>
www.bindingDB.org

> <BindingDB Reactant_set_id>
50844845

> <Ligand InChI>
InChI=1S/C18H18IN3O2/c1-3-23-16-9-14-15(10-17(16)24-4-2)20-11-21-18(14)22-13-7-5-6-12(19)8-13/h5-11H,3-4H2,1-2H3,(H,20,21,22)

> <Ligand InChI Key>
JFCHPYHJJFGZSB-UHFFFAOYSA-N

> <BindingDB MonomerID>
50095273

> <BindingDB Ligand Name>
(6,7-Diethoxy-quinazolin-4-yl)-(3-iodo-phenyl)-amine::CHEMBL1204262::CHEMBL65704

> <Target Name Assigned by Curator or DataSource>
Epidermal growth factor receptor

> <Target Source Organism According to Curator or DataSource>
Homo sapiens

> <Ki (nM)>


> <Kd (nM)>


> <EC50 (nM)>


> <kon (M-1-s-1)>


> <koff (s-1)>


> <pH>


> <Temp C>


> <Curation/DataSource>
ChEMBL

> <Article DOI>
10.1021/jm050607w

> <PubChem AID>


> <Patent Number>


> <Authors>
VanBrocklin, HF; Lim, JK; Coffing, SL; Hom, DL; Negash, K; Ono, MY; Gilmore, JL; Bryant, I; Riese, DJ

> <Institution>
Lawrence Berkeley National Laboratory

> <Link to Ligand in BindingDB>
http://www.bindingdb.org/bind/chemsearch/marvin/MolStructure.jsp?monomerid=50095273

> <Link to Ligand-Target Pair in BindingDB>
http://www.bindingdb.org/jsp/dbsearch/PrimarySearch_ki.jsp?energyterm=kJ/mole&tag=r21&monomerid=50095273&enzyme=Epidermal+growth+factor+receptor&column=ki&startPg=0&Increment=50&submit=Search

> <Ligand HET ID in PDB>


> <PDB ID(s) for Ligand-Target Complex>


> <PubChem CID>
10048580

> <PubChem SID>
103993011

> <ChEBI ID of Ligand>


> <ChEMBL ID of Ligand>
CHEMBL65704
CHEMBL1204262

> <DrugBank ID of Ligand>


> <IUPHAR_GRAC ID of Ligand>


> <KEGG ID of Ligand>


> <ZINC ID of Ligand>
ZINC13528693

> <Number of Protein Chains in Target (>
1

> <BindingDB Target Chain Sequence>
MRPSGTAGAALLALLAALCPASRALEEKKVCQGTSNKLTQLGTFEDHFLSLQRMFNNCEVVLGNLEITYVQRNYDLSFLKTIQEVAGYVLIALNTVERIPLENLQIIRGNMYYENSYALAVLSNYDANKTGLKELPMRNLQEILHGAVRFSNNPALCNVESIQWRDIVSSDFLSNMSMDFQNHLGSCQKCDPSCPNGSCWGAGEENCQKLTKIICAQQCSGRCRGKSPSDCCHNQCAAGCTGPRESDCLVCRKFRDEATCKDTCPPLMLYNPTTYQMDVNPEGKYSFGATCVKKCPRNYVVTDHGSCVRACGADSYEMEEDGVRKCKKCEGPCRKVCNGIGIGEFKDSLSINATNIKHFKNCTSISGDLHILPVAFRGDSFTHTPPLDPQELDILKTVKEITGFLLIQAWPENRTDLHAFENLEIIRGRTKQHGQFSLAVVSLNITSLGLRSLKEISDGDVIISGNKNLCYANTINWKKLFGTSGQKTKIISNRGENSCKATGQVCHALCSPEGCWGPEPRDCVSCRNVSRGRECVDKCNLLEGEPREFVENSECIQCHPECLPQAMNITCTGRGPDNCIQCAHYIDGPHCVKTCPAGVMGENNTLVWKYADAGHVCHLCHPNCTYGCTGPGLEGCPTNGPKIPSIATGMVGALLLLLVVALGIGLFMRRRHIVRKRTLRRLLQERELVEPLTPSGEAPNQALLRILKETEFKKIKVLGSGAFGTVYKGLWIPEGEKVKIPVAIKELREATSPKANKEILDEAYVMASVDNPHVCRLLGICLTSTVQLITQLMPFGCLLDYVREHKDNIGSQYLLNWCVQIAKGMNYLEDRRLVHRDLAARNVLVKTPQHVKITDFGLAKLLGAEEKEYHAEGGKVPIKWMALESILHRIYTHQSDVWSYGVTVWELMTFGSKPYDGIPASEISSILEKGERLPQPPICTIDVYMIMVKCWMIDADSRPKFRELIIEFSKMARDPQRYLVIQGDERMHLPSPTDSNFYRALMDEEDMDDVVDADEYLIPQQGFFSSPSTSRTPLLSSLSATSNNSTVACIDRNGLQSCPIKEDSFLQRYSSDPTGALTEDSIDDTFLPVPEYINQSVPKRPAGSVQNPVYHNQPLNPAPSRDPHYQDPHSTAVGNPEYLNTVQPTCVNSTFDSPAHWAQKGSHQISLDNPDYQQDFFPKEAKPNGIFKGSTAENAEYLRVAPQSSEFIGA

> <PDB ID(s) of Target Chain>
1IVO,1M14,1M17,1MOX,1XKK,1Z9I,2GS2,2GS6,2ITW,2ITX,2ITY,2J5E,2J5F,2J6M,2RF9,2RGP,3B2V,3BEL,3GOP,3POZ,3QWQ,3VJO,3W2O,3W2P,3W2Q,3W2R,3W2S,3W32,3W33,4G5J,4I23,4JQ7,4JQ8,4JR3,4JRV,4KRO,4LI5,4RJ4,4RJ5,4RJ6,4RJ7,4RJ8,4TKS,4UIP,4UV7,4WKQ,4WRG,4ZAU,5C8K,5C8M,5C8N,5CAL,5CAN,5CAO,5CAP,5CAQ,5CAS,5CAU,5CAV,5EDP,5EDQ,5EDR,5EM5,5EM6,5EM7,5EM8,5FED,5GNK,5HCX,5HCY,5HCZ,5HIB,5HIC,5UGB,5WB7,5WB8,5Y25,6S89,6S8A

> <UniProt (SwissProt) Recommended Name of Target Chain>
Epidermal growth factor receptor

> <UniProt (SwissProt) Entry Name of Target Chain>
EGFR_HUMAN

> <UniProt (SwissProt) Primary ID of Target Chain>
P00533

> <UniProt (SwissProt) Secondary ID(s) of Target Chain>
O00688,O00732,P06268,Q14225,Q68GS5,Q92795,Q9BZS2,Q9GZX1,Q9H2C9,Q9H3C9,Q9UMD7,Q9UMD8,Q9UMG5

> <UniProt (SwissProt) Alternative ID(s) of Target Chain>


> <UniProt (TrEMBL) Submitted Name of Target Chain>


> <UniProt (TrEMBL) Entry Name of Target Chain>


> <UniProt (TrEMBL) Primary ID of Target Chain>


> <UniProt (TrEMBL) Secondary ID(s) of Target Chain>


> <UniProt (TrEMBL) Alternative ID(s) of Target Chain>


> <training label>
8.33724

> <i_lp_mmshare_version>
54117

> <s_epik_input>
W0NIM11bQ0gyXU9jKFtjSF0xKWMoT1tDSDJdW0NIM10pW2NIXWMoYzEyKW5bY0hdbmMyW05IXWMzW2NIXWMoSSlbY0hdW2NIXVtjSF0z

> <s_epik_cmdline>
J2VwaWtfcHl0aG9uJywgJy1waHQnLCAnMC4xJywgJy1waCcsICc3LjQnLCAnLXRuJywgJzgnLCAnLW1hJywgJzIwMCcsICctaW1hZScsICc8aW5maWxlLm1hZT4nLCAnLW9tYWUnLCAnPG91dGZpbGUubWFlPic=

> <r_lp_tautomer_probability>
1

> <r_epik_Ionization_Penalty>
  0.0005

> <r_epik_Ionization_Penalty_Charging>
  0.0000

> <r_epik_Ionization_Penalty_Neutral>
  0.0005

> <r_epik_State_Penalty>
  0.0000

> <r_epik_Charging_Adjusted_Penalty>
0

> <i_epik_Tot_Q>
0

> <i_epik_Tot_abs_Q>
0

> <i_f3d_flags>
0

> <s_lp_Force_Field>
OPLS_2005

> <r_lp_Energy>
19.648187

> <b_lp_Chiralities_Consistent>
1

> <s_lp_Variant>
BindingDB_50095273_mol_1-1

> <s_i_glide_gridfile>
struct_1_site_1

> <i_i_glide_lignum>
256

> <i_i_glide_rotatable_bonds>
6

> <r_i_docking_score>
-7.42259284716899

> <r_i_glide_ligand_efficiency>
-0.309274701965375

> <r_i_glide_ligand_efficiency_sa>
-0.892102611087977

> <r_i_glide_ligand_efficiency_ln>
-1.77656706891947

> <r_i_glide_gscore>
-7.42259284716899

> <r_i_glide_lipo>
-3.00981409891931

> <r_i_glide_hbond>
-0.32

> <r_i_glide_metal>
0

> <r_i_glide_rewards>
-1.60373032753745

> <r_i_glide_evdw>
-41.8131141662598

> <r_i_glide_ecoul>
-5.46024370193481

> <r_i_glide_erotb>
0.420643842890975

> <r_i_glide_esite>
0

> <r_i_glide_emodel>
-55.2171494918456

> <r_i_glide_energy>
-47.2733578681946

> <r_i_glide_einternal>
3.18035793304443

> <i_i_glide_confnum>
20

> <i_i_glide_posenum>
376

> <r_i_glide_eff_state_penalty>
0

> <IC50 (nM)>
4.6

> <PMID>
16279804

> <r_glide_shape_similarity>
0.863115191459656

> <s_m_subgroup_title>
505 training

> <s_m_subgroupid>
pocket_pv

> <b_m_subgroup_collapsed>
0

$$$$
BindingDB_3508_mol_1
                    3D
 Schrodinger Suite 2021-2.
 32 34  0  0  1  0            999 V2000
   21.5068    0.6395   52.4924 C   0  0  0  0  0  0
   20.1465    0.5100   52.1427 C   0  0  0  0  0  0
   19.3439   -0.4020   52.8445 C   0  0  0  0  0  0
   19.9105   -1.2114   53.8416 C   0  0  0  0  0  0
   22.0714   -0.1681   53.5006 C   0  0  0  0  0  0
   21.2715   -1.1117   54.1814 C   0  0  0  0  0  0
   23.4351   -0.0965   53.8643 C   0  0  0  0  0  0
   23.0939   -1.7327   55.4081 C   0  0  0  0  0  0
   23.9353   -0.8948   54.8214 N   0  0  0  0  0  0
   21.8034   -1.8919   55.1387 N   0  0  0  0  0  0
   24.2882    0.8472   53.2753 N   0  0  0  0  0  0
   23.8230    1.6218   52.8346 H   0  0  0  0  0  0
   25.6835    0.9466   53.3430 C   0  0  0  0  0  0
   27.6698    2.3563   53.4226 C   0  0  0  0  0  0
   26.2736    2.2222   53.3694 C   0  0  0  0  0  0
   26.5157   -0.1900   53.3343 C   0  0  0  0  0  0
   27.9133   -0.0554   53.3839 C   0  0  0  0  0  0
   28.4915    1.2206   53.4375 C   0  0  0  0  0  0
   19.5489    1.2267   51.1374 O   0  0  0  0  0  0
   20.3631    1.6335   50.0501 C   0  0  0  0  0  0
   22.1226    1.3509   51.9656 H   0  0  0  0  0  0
   18.2966   -0.4997   52.5981 H   0  0  0  0  0  0
   19.2857   -1.9150   54.3715 H   0  0  0  0  0  0
   23.5064   -2.3711   56.1748 H   0  0  0  0  0  0
   28.1095    3.3431   53.4530 H   0  0  0  0  0  0
   25.6629    3.1144   53.3599 H   0  0  0  0  0  0
   26.0877   -1.1805   53.2849 H   0  0  0  0  0  0
   28.5416   -0.9343   53.3819 H   0  0  0  0  0  0
   29.5669    1.3308   53.4798 H   0  0  0  0  0  0
   19.7276    1.9534   49.2245 H   0  0  0  0  0  0
   20.9890    0.8164   49.6870 H   0  0  0  0  0  0
   20.9973    2.4770   50.3240 H   0  0  0  0  0  0
  1  2  1  0  0  0
  1  5  2  0  0  0
  1 21  1  0  0  0
  2  3  2  0  0  0
  2 19  1  0  0  0
  3  4  1  0  0  0
  3 22  1  0  0  0
  4  6  2  0  0  0
  4 23  1  0  0  0
  5  6  1  0  0  0
  5  7  1  0  0  0
  6 10  1  0  0  0
  7  9  2  0  0  0
  7 11  1  0  0  0
  8  9  1  0  0  0
  8 10  2  0  0  0
  8 24  1  0  0  0
 11 12  1  0  0  0
 11 13  1  0  0  0
 13 15  2  0  0  0
 13 16  1  0  0  0
 14 15  1  0  0  0
 14 18  2  0  0  0
 14 25  1  0  0  0
 15 26  1  0  0  0
 16 17  2  0  0  0
 16 27  1  0  0  0
 17 18  1  0  0  0
 17 28  1  0  0  0
 18 29  1  0  0  0
 19 20  1  0  0  0
 20 30  1  0  0  0
 20 31  1  0  0  0
 20 32  1  0  0  0
M  END
> <s_m_entry_id>
323

> <s_m_entry_name>
pocket_pv.134

> <s_m_Source_Path>
/home/bortolaa/Project/GT/mario-master/docking/set505protein_struct_1_site_1_set505ligs_train

> <s_m_Source_File>
pocket_pv.maegz

> <i_m_Source_File_Index>
134

> <From>
www.bindingDB.org

> <BindingDB Reactant_set_id>
50210245

> <Ligand InChI>
InChI=1S/C15H13N3O/c1-19-12-7-8-14-13(9-12)15(17-10-16-14)18-11-5-3-2-4-6-11/h2-10H,1H3,(H,16,17,18)

> <Ligand InChI Key>
GKRKTKNUATZSTP-UHFFFAOYSA-N

> <BindingDB MonomerID>
3508

> <BindingDB Ligand Name>
6-methoxy-N-phenylquinazolin-4-amine::CHEMBL328879::PD153035 Analog 7

> <Target Name Assigned by Curator or DataSource>
Epidermal growth factor receptor

> <Target Source Organism According to Curator or DataSource>
Homo sapiens

> <Ki (nM)>


> <Kd (nM)>


> <EC50 (nM)>


> <kon (M-1-s-1)>


> <koff (s-1)>


> <pH>


> <Temp C>


> <Curation/DataSource>
ChEMBL

> <Article DOI>
10.1021/jm070654j

> <PubChem AID>


> <Patent Number>


> <Authors>
Kolb, P; Huang, D; Dey, F; Caflisch, A

> <Institution>
University of Zurich

> <Link to Ligand in BindingDB>
http://www.bindingdb.org/bind/chemsearch/marvin/MolStructure.jsp?monomerid=3508

> <Link to Ligand-Target Pair in BindingDB>
http://www.bindingdb.org/jsp/dbsearch/PrimarySearch_ki.jsp?energyterm=kJ/mole&tag=r21&monomerid=3508&enzyme=Epidermal+growth+factor+receptor&column=ki&startPg=0&Increment=50&submit=Search

> <Ligand HET ID in PDB>


> <PDB ID(s) for Ligand-Target Complex>


> <PubChem CID>
5328186

> <PubChem SID>
8033239

> <ChEBI ID of Ligand>


> <ChEMBL ID of Ligand>
CHEMBL328879

> <DrugBank ID of Ligand>


> <IUPHAR_GRAC ID of Ligand>


> <KEGG ID of Ligand>


> <ZINC ID of Ligand>
ZINC03815251

> <Number of Protein Chains in Target (>
1

> <BindingDB Target Chain Sequence>
MRPSGTAGAALLALLAALCPASRALEEKKVCQGTSNKLTQLGTFEDHFLSLQRMFNNCEVVLGNLEITYVQRNYDLSFLKTIQEVAGYVLIALNTVERIPLENLQIIRGNMYYENSYALAVLSNYDANKTGLKELPMRNLQEILHGAVRFSNNPALCNVESIQWRDIVSSDFLSNMSMDFQNHLGSCQKCDPSCPNGSCWGAGEENCQKLTKIICAQQCSGRCRGKSPSDCCHNQCAAGCTGPRESDCLVCRKFRDEATCKDTCPPLMLYNPTTYQMDVNPEGKYSFGATCVKKCPRNYVVTDHGSCVRACGADSYEMEEDGVRKCKKCEGPCRKVCNGIGIGEFKDSLSINATNIKHFKNCTSISGDLHILPVAFRGDSFTHTPPLDPQELDILKTVKEITGFLLIQAWPENRTDLHAFENLEIIRGRTKQHGQFSLAVVSLNITSLGLRSLKEISDGDVIISGNKNLCYANTINWKKLFGTSGQKTKIISNRGENSCKATGQVCHALCSPEGCWGPEPRDCVSCRNVSRGRECVDKCNLLEGEPREFVENSECIQCHPECLPQAMNITCTGRGPDNCIQCAHYIDGPHCVKTCPAGVMGENNTLVWKYADAGHVCHLCHPNCTYGCTGPGLEGCPTNGPKIPSIATGMVGALLLLLVVALGIGLFMRRRHIVRKRTLRRLLQERELVEPLTPSGEAPNQALLRILKETEFKKIKVLGSGAFGTVYKGLWIPEGEKVKIPVAIKELREATSPKANKEILDEAYVMASVDNPHVCRLLGICLTSTVQLITQLMPFGCLLDYVREHKDNIGSQYLLNWCVQIAKGMNYLEDRRLVHRDLAARNVLVKTPQHVKITDFGLAKLLGAEEKEYHAEGGKVPIKWMALESILHRIYTHQSDVWSYGVTVWELMTFGSKPYDGIPASEISSILEKGERLPQPPICTIDVYMIMVKCWMIDADSRPKFRELIIEFSKMARDPQRYLVIQGDERMHLPSPTDSNFYRALMDEEDMDDVVDADEYLIPQQGFFSSPSTSRTPLLSSLSATSNNSTVACIDRNGLQSCPIKEDSFLQRYSSDPTGALTEDSIDDTFLPVPEYINQSVPKRPAGSVQNPVYHNQPLNPAPSRDPHYQDPHSTAVGNPEYLNTVQPTCVNSTFDSPAHWAQKGSHQISLDNPDYQQDFFPKEAKPNGIFKGSTAENAEYLRVAPQSSEFIGA

> <PDB ID(s) of Target Chain>
1IVO,1M14,1M17,1MOX,1XKK,1Z9I,2GS2,2GS6,2ITW,2ITX,2ITY,2J5E,2J5F,2J6M,2RF9,2RGP,3B2V,3BEL,3GOP,3POZ,3QWQ,3VJO,3W2O,3W2P,3W2Q,3W2R,3W2S,3W32,3W33,4G5J,4I23,4JQ7,4JQ8,4JR3,4JRV,4KRO,4LI5,4RJ4,4RJ5,4RJ6,4RJ7,4RJ8,4TKS,4UIP,4UV7,4WKQ,4WRG,4ZAU,5C8K,5C8M,5C8N,5CAL,5CAN,5CAO,5CAP,5CAQ,5CAS,5CAU,5CAV,5EDP,5EDQ,5EDR,5EM5,5EM6,5EM7,5EM8,5FED,5GNK,5HCX,5HCY,5HCZ,5HIB,5HIC,5UGB,5WB7,5WB8,5Y25,6S89,6S8A

> <UniProt (SwissProt) Recommended Name of Target Chain>
Epidermal growth factor receptor

> <UniProt (SwissProt) Entry Name of Target Chain>
EGFR_HUMAN

> <UniProt (SwissProt) Primary ID of Target Chain>
P00533

> <UniProt (SwissProt) Secondary ID(s) of Target Chain>
O00688,O00732,P06268,Q14225,Q68GS5,Q92795,Q9BZS2,Q9GZX1,Q9H2C9,Q9H3C9,Q9UMD7,Q9UMD8,Q9UMG5

> <UniProt (SwissProt) Alternative ID(s) of Target Chain>


> <UniProt (TrEMBL) Submitted Name of Target Chain>


> <UniProt (TrEMBL) Entry Name of Target Chain>


> <UniProt (TrEMBL) Primary ID of Target Chain>


> <UniProt (TrEMBL) Secondary ID(s) of Target Chain>


> <UniProt (TrEMBL) Alternative ID(s) of Target Chain>


> <training label>
6.92082

> <i_lp_mmshare_version>
54117

> <s_epik_input>
W0NIM11PYyhbY0hdMSlbY0hdW2NIXWMoYzEyKW5bY0hdbmMyW05IXWMzW2NIXVtjSF1bY0hdW2NIXVtjSF0z

> <s_epik_cmdline>
J2VwaWtfcHl0aG9uJywgJy1waHQnLCAnMC4xJywgJy1waCcsICc3LjQnLCAnLXRuJywgJzgnLCAnLW1hJywgJzIwMCcsICctaW1hZScsICc8aW5maWxlLm1hZT4nLCAnLW9tYWUnLCAnPG91dGZpbGUubWFlPic=

> <r_lp_tautomer_probability>
1

> <r_epik_Ionization_Penalty>
  0.0003

> <r_epik_Ionization_Penalty_Charging>
  0.0000

> <r_epik_Ionization_Penalty_Neutral>
  0.0003

> <r_epik_State_Penalty>
  0.0000

> <r_epik_Charging_Adjusted_Penalty>
0

> <i_epik_Tot_Q>
0

> <i_epik_Tot_abs_Q>
0

> <i_f3d_flags>
0

> <s_lp_Force_Field>
OPLS_2005

> <r_lp_Energy>
16.155836

> <b_lp_Chiralities_Consistent>
1

> <s_lp_Variant>
BindingDB_3508_mol_1-1

> <s_i_glide_gridfile>
struct_1_site_1

> <i_i_glide_lignum>
146

> <i_i_glide_rotatable_bonds>
3

> <r_i_docking_score>
-7.42234965702838

> <r_i_glide_ligand_efficiency>
-0.390649981948862

> <r_i_glide_ligand_efficiency_sa>
-1.04241105488244

> <r_i_glide_ligand_efficiency_ln>
-1.88172505551015

> <r_i_glide_gscore>
-7.42234965702838

> <r_i_glide_lipo>
-2.41283442749473

> <r_i_glide_hbond>
-0.32

> <r_i_glide_metal>
0

> <r_i_glide_rewards>
-2.85898198140752

> <r_i_glide_evdw>
-31.5791988372803

> <r_i_glide_ecoul>
-5.37785577774048

> <r_i_glide_erotb>
0.555105060398953

> <r_i_glide_esite>
0

> <r_i_glide_emodel>
-27.0989450523679

> <r_i_glide_energy>
-36.9570546150208

> <r_i_glide_einternal>
0.242966085672379

> <i_i_glide_confnum>
1

> <i_i_glide_posenum>
230

> <r_i_glide_eff_state_penalty>
0

> <IC50 (nM)>
120

> <PMID>
18271520

> <r_glide_shape_similarity>
0.721230030059814

> <s_m_subgroup_title>
505 training

> <s_m_subgroupid>
pocket_pv

> <b_m_subgroup_collapsed>
0

$$$$
BindingDB_50144606_mol_1
                    3D
 Schrodinger Suite 2021-2.
 44 47  0  0  1  0            999 V2000
   24.8477    0.6341   52.9067 N   0  0  0  0  0  0
   26.2760    0.6840   52.5023 C   0  0  1  0  0  0
   24.2212   -0.1473   53.8519 C   0  0  0  0  0  0
   22.8405    0.0162   53.5997 C   0  0  0  0  0  0
   22.6154    0.9818   52.6501 N   0  0  0  0  0  0
   26.9966    1.9014   53.0394 C   0  0  2  0  0  0
   23.8558    1.3168   52.3231 C   0  0  0  0  0  0
   26.9309   -0.4484   52.9485 O   0  0  0  0  0  0
   28.3634    1.3346   53.3155 C   0  0  2  0  0  0
   28.0943   -0.1236   53.6821 C   0  0  2  0  0  0
   21.9962   -0.8244   54.3392 C   0  0  0  0  0  0
   24.7554   -0.9804   54.7843 N   0  0  0  0  0  0
   22.4989   -1.6604   55.2594 N   0  0  0  0  0  0
   20.2824   -0.8602   54.1672 S   0  0  0  0  0  0
   23.8154   -1.6679   55.4322 C   0  0  0  0  0  0
   26.3768    2.4319   54.1749 O   0  0  0  0  0  0
   29.0881    2.0767   54.2655 O   0  0  0  0  0  0
   19.8391   -0.0649   52.5969 C   0  0  0  0  0  0
   15.5408   -0.0958   52.4148 C   0  0  0  0  0  0
   18.3507   -0.1723   52.3937 C   0  0  0  0  0  0
   29.2419   -1.0271   53.2240 C   0  0  0  0  0  0
   13.4760    0.0263   52.6609 I   0  0  0  0  0  0
   16.2123   -1.2019   52.9383 C   0  0  0  0  0  0
   16.2651    0.9211   51.7757 C   0  0  0  0  0  0
   17.6149   -1.2605   52.9101 C   0  0  0  0  0  0
   17.6720    0.8873   51.7742 C   0  0  0  0  0  0
   28.9838   -2.4010   53.3933 O   0  0  0  0  0  0
   26.2569    0.6622   51.4081 H   0  0  0  0  0  0
   27.0224    2.6809   52.2650 H   0  0  0  0  0  0
   24.0524    2.0436   51.5500 H   0  0  0  0  0  0
   28.9245    1.3826   52.3896 H   0  0  0  0  0  0
   27.8845   -0.2200   54.7475 H   0  0  0  0  0  0
   24.1855   -2.3581   56.1729 H   0  0  0  0  0  0
   26.8384    3.2327   54.3811 H   0  0  0  0  0  0
   30.0127    2.0102   54.0570 H   0  0  0  0  0  0
   20.0901    1.0011   52.6784 H   0  0  0  0  0  0
   20.3770   -0.4759   51.7450 H   0  0  0  0  0  0
   30.1395   -0.7590   53.7777 H   0  0  0  0  0  0
   29.4556   -0.8706   52.1679 H   0  0  0  0  0  0
   15.6482   -2.0147   53.3617 H   0  0  0  0  0  0
   15.7388    1.7629   51.3370 H   0  0  0  0  0  0
   18.0979   -2.1145   53.3637 H   0  0  0  0  0  0
   18.2261    1.7200   51.3769 H   0  0  0  0  0  0
   28.5690   -2.5468   54.2262 H   0  0  0  0  0  0
  1  2  1  0  0  0
  1  3  1  0  0  0
  1  7  1  0  0  0
  2  6  1  0  0  0
  2  8  1  0  0  0
  2 28  1  0  0  0
  3  4  2  0  0  0
  3 12  1  0  0  0
  4 11  1  0  0  0
  4  5  1  0  0  0
  5  7  2  0  0  0
  6  9  1  0  0  0
  6 16  1  0  0  0
  6 29  1  0  0  0
  7 30  1  0  0  0
  8 10  1  0  0  0
  9 17  1  0  0  0
  9 10  1  0  0  0
  9 31  1  0  0  0
 10 21  1  0  0  0
 10 32  1  0  0  0
 11 14  1  0  0  0
 11 13  2  0  0  0
 12 15  2  0  0  0
 13 15  1  0  0  0
 14 18  1  0  0  0
 15 33  1  0  0  0
 16 34  1  0  0  0
 17 35  1  0  0  0
 18 20  1  0  0  0
 18 36  1  0  0  0
 18 37  1  0  0  0
 19 24  2  0  0  0
 19 22  1  0  0  0
 19 23  1  0  0  0
 20 25  1  0  0  0
 20 26  2  0  0  0
 21 27  1  0  0  0
 21 38  1  0  0  0
 21 39  1  0  0  0
 23 25  2  0  0  0
 23 40  1  0  0  0
 24 26  1  0  0  0
 24 41  1  0  0  0
 25 42  1  0  0  0
 26 43  1  0  0  0
 27 44  1  0  0  0
M  END
> <s_m_entry_id>
324

> <s_m_entry_name>
pocket_pv.135

> <s_m_Source_Path>
/home/bortolaa/Project/GT/mario-master/docking/set505protein_struct_1_site_1_set505ligs_train

> <s_m_Source_File>
pocket_pv.maegz

> <i_m_Source_File_Index>
135

> <From>
www.bindingDB.org

> <BindingDB Reactant_set_id>
50463846

> <Ligand InChI>
InChI=1S/C29H23ClN4O3/c1-36-26-15-23-25(16-27(26)37-17-19-7-3-2-4-8-19)31-18-32-28(23)33-20-11-13-21(14-12-20)34-29(35)22-9-5-6-10-24(22)30/h2-16,18H,17H2,1H3,(H,34,35)(H,31,32,33)

> <Ligand InChI Key>
JASSTMZJDQXQFP-UHFFFAOYSA-N

> <BindingDB MonomerID>
50144606

> <BindingDB Ligand Name>
CHEMBL3759203

> <Target Name Assigned by Curator or DataSource>
Epidermal growth factor receptor

> <Target Source Organism According to Curator or DataSource>
Homo sapiens

> <Ki (nM)>


> <IC50 (nM)>
730

> <Kd (nM)>


> <EC50 (nM)>


> <kon (M-1-s-1)>


> <koff (s-1)>


> <pH>


> <Temp C>


> <Curation/DataSource>
ChEMBL

> <Article DOI>
10.1016/j.ejmech.2015.12.032

> <PubChem AID>


> <Patent Number>


> <Authors>
Zhang, HQ; Gong, FH; Li, CG; Zhang, C; Wang, YJ; Xu, YG; Sun, LP

> <Institution>
China Pharmaceutical University

> <Link to Ligand in BindingDB>
http://www.bindingdb.org/bind/chemsearch/marvin/MolStructure.jsp?monomerid=50144606

> <Link to Ligand-Target Pair in BindingDB>
http://www.bindingdb.org/jsp/dbsearch/PrimarySearch_ki.jsp?energyterm=kJ/mole&tag=r21&monomerid=50144606&enzyme=Epidermal+growth+factor+receptor&column=ki&startPg=0&Increment=50&submit=Search

> <Ligand HET ID in PDB>


> <PDB ID(s) for Ligand-Target Complex>


> <PubChem CID>
44312149

> <PubChem SID>
104033684

> <ChEBI ID of Ligand>


> <ChEMBL ID of Ligand>
CHEMBL3759203

> <DrugBank ID of Ligand>


> <IUPHAR_GRAC ID of Ligand>


> <KEGG ID of Ligand>


> <ZINC ID of Ligand>
ZINC36332177

> <Number of Protein Chains in Target (>
1

> <BindingDB Target Chain Sequence>
MRPSGTAGAALLALLAALCPASRALEEKKVCQGTSNKLTQLGTFEDHFLSLQRMFNNCEVVLGNLEITYVQRNYDLSFLKTIQEVAGYVLIALNTVERIPLENLQIIRGNMYYENSYALAVLSNYDANKTGLKELPMRNLQEILHGAVRFSNNPALCNVESIQWRDIVSSDFLSNMSMDFQNHLGSCQKCDPSCPNGSCWGAGEENCQKLTKIICAQQCSGRCRGKSPSDCCHNQCAAGCTGPRESDCLVCRKFRDEATCKDTCPPLMLYNPTTYQMDVNPEGKYSFGATCVKKCPRNYVVTDHGSCVRACGADSYEMEEDGVRKCKKCEGPCRKVCNGIGIGEFKDSLSINATNIKHFKNCTSISGDLHILPVAFRGDSFTHTPPLDPQELDILKTVKEITGFLLIQAWPENRTDLHAFENLEIIRGRTKQHGQFSLAVVSLNITSLGLRSLKEISDGDVIISGNKNLCYANTINWKKLFGTSGQKTKIISNRGENSCKATGQVCHALCSPEGCWGPEPRDCVSCRNVSRGRECVDKCNLLEGEPREFVENSECIQCHPECLPQAMNITCTGRGPDNCIQCAHYIDGPHCVKTCPAGVMGENNTLVWKYADAGHVCHLCHPNCTYGCTGPGLEGCPTNGPKIPSIATGMVGALLLLLVVALGIGLFMRRRHIVRKRTLRRLLQERELVEPLTPSGEAPNQALLRILKETEFKKIKVLGSGAFGTVYKGLWIPEGEKVKIPVAIKELREATSPKANKEILDEAYVMASVDNPHVCRLLGICLTSTVQLITQLMPFGCLLDYVREHKDNIGSQYLLNWCVQIAKGMNYLEDRRLVHRDLAARNVLVKTPQHVKITDFGLAKLLGAEEKEYHAEGGKVPIKWMALESILHRIYTHQSDVWSYGVTVWELMTFGSKPYDGIPASEISSILEKGERLPQPPICTIDVYMIMVKCWMIDADSRPKFRELIIEFSKMARDPQRYLVIQGDERMHLPSPTDSNFYRALMDEEDMDDVVDADEYLIPQQGFFSSPSTSRTPLLSSLSATSNNSTVACIDRNGLQSCPIKEDSFLQRYSSDPTGALTEDSIDDTFLPVPEYINQSVPKRPAGSVQNPVYHNQPLNPAPSRDPHYQDPHSTAVGNPEYLNTVQPTCVNSTFDSPAHWAQKGSHQISLDNPDYQQDFFPKEAKPNGIFKGSTAENAEYLRVAPQSSEFIGA

> <PDB ID(s) of Target Chain>
1IVO,1M14,1M17,1MOX,1XKK,1Z9I,2GS2,2GS6,2ITW,2ITX,2ITY,2J5E,2J5F,2J6M,2RF9,2RGP,3B2V,3BEL,3GOP,3POZ,3QWQ,3VJO,3W2O,3W2P,3W2Q,3W2R,3W2S,3W32,3W33,4G5J,4I23,4JQ7,4JQ8,4JR3,4JRV,4KRO,4LI5,4RJ4,4RJ5,4RJ6,4RJ7,4RJ8,4TKS,4UIP,4UV7,4WKQ,4WRG,4ZAU,5C8K,5C8M,5C8N,5CAL,5CAN,5CAO,5CAP,5CAQ,5CAS,5CAU,5CAV,5EDP,5EDQ,5EDR,5EM5,5EM6,5EM7,5EM8,5FED,5GNK,5HCX,5HCY,5HCZ,5HIB,5HIC,5UGB,5WB7,5WB8,5Y25,6S89,6S8A

> <UniProt (SwissProt) Recommended Name of Target Chain>
Epidermal growth factor receptor

> <UniProt (SwissProt) Entry Name of Target Chain>
EGFR_HUMAN

> <UniProt (SwissProt) Primary ID of Target Chain>
P00533

> <UniProt (SwissProt) Secondary ID(s) of Target Chain>
O00688,O00732,P06268,Q14225,Q68GS5,Q92795,Q9BZS2,Q9GZX1,Q9H2C9,Q9H3C9,Q9UMD7,Q9UMD8,Q9UMG5

> <UniProt (SwissProt) Alternative ID(s) of Target Chain>


> <UniProt (TrEMBL) Submitted Name of Target Chain>


> <UniProt (TrEMBL) Entry Name of Target Chain>


> <UniProt (TrEMBL) Primary ID of Target Chain>


> <UniProt (TrEMBL) Secondary ID(s) of Target Chain>


> <UniProt (TrEMBL) Alternative ID(s) of Target Chain>


> <training label>
6.13668

> <i_lp_mmshare_version>
54117

> <s_epik_input>
W09IXVtDSDJdW0NASF0oTzEpW0NASF0oW09IXSlbQ0BIXShbT0hdKVtDQEBIXTFuMltjSF1uYyhjMjMpYyhuW2NIXW4zKVNbQ0gyXWMoW2NIXVtjSF00KVtjSF1bY0hdYzRJ

> <s_epik_cmdline>
J2VwaWtfcHl0aG9uJywgJy1waHQnLCAnMC4xJywgJy1waCcsICc3LjQnLCAnLXRuJywgJzgnLCAnLW1hJywgJzIwMCcsICctaW1hZScsICc8aW5maWxlLm1hZT4nLCAnLW9tYWUnLCAnPG91dGZpbGUubWFlPic=

> <r_lp_tautomer_probability>
1

> <r_epik_Ionization_Penalty>
  0.0001

> <r_epik_Ionization_Penalty_Charging>
  0.0000

> <r_epik_Ionization_Penalty_Neutral>
  0.0001

> <r_epik_State_Penalty>
  0.0000

> <r_epik_Charging_Adjusted_Penalty>
0

> <i_epik_Tot_Q>
0

> <i_epik_Tot_abs_Q>
0

> <i_f3d_flags>
0

> <s_lp_Force_Field>
OPLS_2005

> <r_lp_Energy>
43.432987

> <b_lp_Chiralities_Consistent>
1

> <s_lp_Variant>
BindingDB_50144606_mol_1-6

> <s_i_glide_gridfile>
struct_1_site_1

> <i_i_glide_lignum>
85

> <i_i_glide_rotatable_bonds>
8

> <r_i_docking_score>
-7.41530013551831

> <r_i_glide_ligand_efficiency>
-0.274640745759938

> <r_i_glide_ligand_efficiency_sa>
-0.823922236374642

> <r_i_glide_ligand_efficiency_ln>
-1.72615962077151

> <r_i_glide_gscore>
-7.41530013551831

> <r_i_glide_lipo>
-2.43992896950088

> <r_i_glide_hbond>
-0.0627411559031341

> <r_i_glide_metal>
0

> <r_i_glide_rewards>
-2.09402730172617

> <r_i_glide_evdw>
-42.5518379211426

> <r_i_glide_ecoul>
-7.32585191726685

> <r_i_glide_erotb>
0.407866975259027

> <r_i_glide_esite>
0

> <r_i_glide_emodel>
-46.4205088227519

> <r_i_glide_energy>
-49.8776898384094

> <r_i_glide_einternal>
5.67240238189697

> <i_i_glide_confnum>
23

> <i_i_glide_posenum>
138

> <r_i_glide_eff_state_penalty>
0

> <PMID>
26826581

> <s_epik_Chemistry_Notes>
This compound contains an acetal/aminal-like group ( X-CH(R)-Y where X, Y are N, S, or O) that may be acid/base labile, releasing an aldehyde.

> <r_glide_shape_similarity>
0.769249022006989

> <s_m_subgroup_title>
505 training

> <s_m_subgroupid>
pocket_pv

> <b_m_subgroup_collapsed>
0

$$$$
/home/bortolaa/Project/GT/mario-master/ligands/set505ligs_train.sdf:116
                    3D
 Schrodinger Suite 2021-2.
 48 50  0  0  1  0            999 V2000
   20.0253    1.7956   49.9790 C   0  0  0  0  0  0
   18.9811    2.5199   49.2486 C   0  0  0  0  0  0
   19.2026    3.0534   48.0323 C   0  0  0  0  0  0
   21.1844    1.6151   49.5928 O   0  0  0  0  0  0
   19.5321    1.3316   51.1475 N   0  0  0  0  0  0
   21.8029   -1.9049   55.1483 N   0  0  0  0  0  0
   23.0992   -1.7551   55.4189 C   0  0  0  0  0  0
   23.9455   -0.9075   54.8322 N   0  0  0  0  0  0
   23.4441   -0.0989   53.8706 C   0  0  0  0  0  0
   22.0757   -0.1675   53.4991 C   0  0  0  0  0  0
   21.5202    0.6520   52.4862 C   0  0  0  0  0  0
   20.1585    0.5241   52.1428 C   0  0  0  0  0  0
   19.3314   -0.3896   52.8363 C   0  0  0  0  0  0
   19.8966   -1.2119   53.8454 C   0  0  0  0  0  0
   21.2673   -1.1164   54.1870 C   0  0  0  0  0  0
   18.0074   -0.4000   52.4315 O   0  0  0  0  0  0
   17.0338   -1.1545   53.1296 C   0  0  0  0  0  0
   15.7705   -1.1263   52.2473 C   0  0  0  0  0  0
   15.1887    0.1741   52.1869 O   0  0  0  0  0  0
   14.2401    0.4080   53.2181 C   0  0  0  0  0  0
   24.2895    0.8493   53.2710 N   0  0  0  0  0  0
   25.6836    0.9495   53.3381 C   0  0  0  0  0  0
   26.5128   -0.2008   53.3260 C   0  0  0  0  0  0
   27.9163   -0.0668   53.3816 C   0  0  0  0  0  0
   28.4952    1.2220   53.4562 C   0  0  0  0  0  0
   27.6763    2.3697   53.4323 C   0  0  0  0  0  0
   26.2745    2.2359   53.3679 C   0  0  0  0  0  0
   29.8383    1.3548   53.5710 F   0  0  0  0  0  0
   28.7655   -1.2531   53.3741 C   0  0  0  0  0  0
   29.4447   -2.1924   53.3742 N   0  0  0  0  0  0
   17.9946    2.6398   49.6868 H   0  0  0  0  0  0
   20.1648    2.9654   47.5424 H   0  0  0  0  0  0
   18.4256    3.5847   47.5118 H   0  0  0  0  0  0
   18.5319    1.4413   51.2857 H   0  0  0  0  0  0
   23.5065   -2.4129   56.1717 H   0  0  0  0  0  0
   22.1263    1.3707   51.9584 H   0  0  0  0  0  0
   19.2857   -1.9227   54.3863 H   0  0  0  0  0  0
   17.3531   -2.1963   53.2489 H   0  0  0  0  0  0
   16.8597   -0.7320   54.1201 H   0  0  0  0  0  0
   16.0355   -1.4276   51.2337 H   0  0  0  0  0  0
   15.0416   -1.8617   52.5933 H   0  0  0  0  0  0
   13.8167    1.4170   53.1035 H   0  0  0  0  0  0
   13.4205   -0.3099   53.1963 H   0  0  0  0  0  0
   14.7119    0.3603   54.1978 H   0  0  0  0  0  0
   23.8155    1.6228   52.8219 H   0  0  0  0  0  0
   26.0754   -1.1908   53.2729 H   0  0  0  0  0  0
   28.1195    3.3528   53.4862 H   0  0  0  0  0  0
   25.6552    3.1277   53.3722 H   0  0  0  0  0  0
  1  2  1  0  0  0
  1  4  2  0  0  0
  1  5  1  0  0  0
  2  3  2  0  0  0
  2 31  1  0  0  0
  3 32  1  0  0  0
  3 33  1  0  0  0
  5 12  1  0  0  0
  5 34  1  0  0  0
  6  7  1  0  0  0
  6 15  2  0  0  0
  7  8  2  0  0  0
  7 35  1  0  0  0
  8  9  1  0  0  0
  9 10  2  0  0  0
  9 21  1  0  0  0
 10 11  1  0  0  0
 10 15  1  0  0  0
 11 12  2  0  0  0
 11 36  1  0  0  0
 12 13  1  0  0  0
 13 14  2  0  0  0
 13 16  1  0  0  0
 14 15  1  0  0  0
 14 37  1  0  0  0
 16 17  1  0  0  0
 17 18  1  0  0  0
 17 38  1  0  0  0
 17 39  1  0  0  0
 18 19  1  0  0  0
 18 40  1  0  0  0
 18 41  1  0  0  0
 19 20  1  0  0  0
 20 42  1  0  0  0
 20 43  1  0  0  0
 20 44  1  0  0  0
 21 22  1  0  0  0
 21 45  1  0  0  0
 22 23  1  0  0  0
 22 27  2  0  0  0
 23 24  2  0  0  0
 23 46  1  0  0  0
 24 25  1  0  0  0
 24 29  1  0  0  0
 25 26  2  0  0  0
 25 28  1  0  0  0
 26 27  1  0  0  0
 26 47  1  0  0  0
 27 48  1  0  0  0
 29 30  3  0  0  0
M  END
> <s_m_entry_id>
325

> <s_m_entry_name>
pocket_pv.136

> <s_m_Source_Path>
/home/bortolaa/Project/GT/mario-master/docking/set505protein_struct_1_site_1_set505ligs_train

> <s_m_Source_File>
pocket_pv.maegz

> <i_m_Source_File_Index>
136

> <From>
www.bindingDB.org

> <BindingDB Reactant_set_id>
50419193

> <Ligand InChI>
InChI=1S/C21H18FN5O3/c1-3-20(28)27-18-9-15-17(10-19(18)30-7-6-29-2)24-12-25-21(15)26-14-4-5-16(22)13(8-14)11-23/h3-5,8-10,12H,1,6-7H2,2H3,(H,27,28)(H,24,25,26)

> <Ligand InChI Key>
OGXSIMNGOTWJLC-UHFFFAOYSA-N

> <BindingDB MonomerID>
50123225

> <BindingDB Ligand Name>
CHEMBL3622620

> <Target Name Assigned by Curator or DataSource>
Epidermal growth factor receptor

> <Target Source Organism According to Curator or DataSource>
Homo sapiens

> <Ki (nM)>


> <Kd (nM)>


> <EC50 (nM)>


> <kon (M-1-s-1)>


> <koff (s-1)>


> <pH>


> <Temp C>


> <Curation/DataSource>
ChEMBL

> <Article DOI>
10.1016/j.ejmech.2015.08.026

> <PubChem AID>


> <Patent Number>


> <Authors>
Zhang, L; Yang, Y; Zhou, H; Zheng, Q; Li, Y; Zheng, S; Zhao, S; Chen, D; Fan, C

> <Institution>
Qilu Pharmaceutical Co, Ltd

> <Link to Ligand in BindingDB>
http://www.bindingdb.org/bind/chemsearch/marvin/MolStructure.jsp?monomerid=50123225

> <Link to Ligand-Target Pair in BindingDB>
http://www.bindingdb.org/jsp/dbsearch/PrimarySearch_ki.jsp?energyterm=kJ/mole&tag=r21&monomerid=50123225&enzyme=Epidermal+growth+factor+receptor&column=ki&startPg=0&Increment=50&submit=Search

> <Ligand HET ID in PDB>


> <PDB ID(s) for Ligand-Target Complex>


> <PubChem CID>
66555946

> <PubChem SID>
321901938

> <ChEBI ID of Ligand>


> <ChEMBL ID of Ligand>
CHEMBL3622620

> <DrugBank ID of Ligand>


> <IUPHAR_GRAC ID of Ligand>


> <KEGG ID of Ligand>


> <ZINC ID of Ligand>


> <Number of Protein Chains in Target (>
1

> <BindingDB Target Chain Sequence>
MRPSGTAGAALLALLAALCPASRALEEKKVCQGTSNKLTQLGTFEDHFLSLQRMFNNCEVVLGNLEITYVQRNYDLSFLKTIQEVAGYVLIALNTVERIPLENLQIIRGNMYYENSYALAVLSNYDANKTGLKELPMRNLQEILHGAVRFSNNPALCNVESIQWRDIVSSDFLSNMSMDFQNHLGSCQKCDPSCPNGSCWGAGEENCQKLTKIICAQQCSGRCRGKSPSDCCHNQCAAGCTGPRESDCLVCRKFRDEATCKDTCPPLMLYNPTTYQMDVNPEGKYSFGATCVKKCPRNYVVTDHGSCVRACGADSYEMEEDGVRKCKKCEGPCRKVCNGIGIGEFKDSLSINATNIKHFKNCTSISGDLHILPVAFRGDSFTHTPPLDPQELDILKTVKEITGFLLIQAWPENRTDLHAFENLEIIRGRTKQHGQFSLAVVSLNITSLGLRSLKEISDGDVIISGNKNLCYANTINWKKLFGTSGQKTKIISNRGENSCKATGQVCHALCSPEGCWGPEPRDCVSCRNVSRGRECVDKCNLLEGEPREFVENSECIQCHPECLPQAMNITCTGRGPDNCIQCAHYIDGPHCVKTCPAGVMGENNTLVWKYADAGHVCHLCHPNCTYGCTGPGLEGCPTNGPKIPSIATGMVGALLLLLVVALGIGLFMRRRHIVRKRTLRRLLQERELVEPLTPSGEAPNQALLRILKETEFKKIKVLGSGAFGTVYKGLWIPEGEKVKIPVAIKELREATSPKANKEILDEAYVMASVDNPHVCRLLGICLTSTVQLITQLMPFGCLLDYVREHKDNIGSQYLLNWCVQIAKGMNYLEDRRLVHRDLAARNVLVKTPQHVKITDFGLAKLLGAEEKEYHAEGGKVPIKWMALESILHRIYTHQSDVWSYGVTVWELMTFGSKPYDGIPASEISSILEKGERLPQPPICTIDVYMIMVKCWMIDADSRPKFRELIIEFSKMARDPQRYLVIQGDERMHLPSPTDSNFYRALMDEEDMDDVVDADEYLIPQQGFFSSPSTSRTPLLSSLSATSNNSTVACIDRNGLQSCPIKEDSFLQRYSSDPTGALTEDSIDDTFLPVPEYINQSVPKRPAGSVQNPVYHNQPLNPAPSRDPHYQDPHSTAVGNPEYLNTVQPTCVNSTFDSPAHWAQKGSHQISLDNPDYQQDFFPKEAKPNGIFKGSTAENAEYLRVAPQSSEFIGA

> <PDB ID(s) of Target Chain>
1IVO,1M14,1M17,1MOX,1XKK,1Z9I,2GS2,2GS6,2ITW,2ITX,2ITY,2J5E,2J5F,2J6M,2RF9,2RGP,3B2V,3BEL,3GOP,3POZ,3QWQ,3VJO,3W2O,3W2P,3W2Q,3W2R,3W2S,3W32,3W33,4G5J,4I23,4JQ7,4JQ8,4JR3,4JRV,4KRO,4LI5,4RJ4,4RJ5,4RJ6,4RJ7,4RJ8,4TKS,4UIP,4UV7,4WKQ,4WRG,4ZAU,5C8K,5C8M,5C8N,5CAL,5CAN,5CAO,5CAP,5CAQ,5CAS,5CAU,5CAV,5EDP,5EDQ,5EDR,5EM5,5EM6,5EM7,5EM8,5FED,5GNK,5HCX,5HCY,5HCZ,5HIB,5HIC,5UGB,5WB7,5WB8,5Y25,6S89,6S8A

> <UniProt (SwissProt) Recommended Name of Target Chain>
Epidermal growth factor receptor

> <UniProt (SwissProt) Entry Name of Target Chain>
EGFR_HUMAN

> <UniProt (SwissProt) Primary ID of Target Chain>
P00533

> <UniProt (SwissProt) Secondary ID(s) of Target Chain>
O00688,O00732,P06268,Q14225,Q68GS5,Q92795,Q9BZS2,Q9GZX1,Q9H2C9,Q9H3C9,Q9UMD7,Q9UMD8,Q9UMG5

> <UniProt (SwissProt) Alternative ID(s) of Target Chain>


> <UniProt (TrEMBL) Submitted Name of Target Chain>


> <UniProt (TrEMBL) Entry Name of Target Chain>


> <UniProt (TrEMBL) Primary ID of Target Chain>


> <UniProt (TrEMBL) Secondary ID(s) of Target Chain>


> <UniProt (TrEMBL) Alternative ID(s) of Target Chain>


> <training label>
6.70774

> <i_lp_mmshare_version>
54117

> <s_epik_input>
W0NIMl09W0NIXUMoPU8pW05IXWMoW2NIXTEpYyhPW0NIMl1bQ0gyXU9bQ0gzXSlbY0hdYyhjMTIpbltjSF1uYzJbTkhdYzNbY0hdYyhDI04pYyhGKVtjSF1bY0hdMw==

> <s_epik_cmdline>
J2VwaWtfcHl0aG9uJywgJy1waHQnLCAnMC4xJywgJy1waCcsICc3LjQnLCAnLXRuJywgJzgnLCAnLW1hJywgJzIwMCcsICctaW1hZScsICc8aW5maWxlLm1hZT4nLCAnLW9tYWUnLCAnPG91dGZpbGUubWFlPic=

> <r_lp_tautomer_probability>
1

> <r_epik_Ionization_Penalty>
  0.0010

> <r_epik_Ionization_Penalty_Charging>
  0.0000

> <r_epik_Ionization_Penalty_Neutral>
  0.0010

> <r_epik_State_Penalty>
  0.0000

> <r_epik_Charging_Adjusted_Penalty>
0

> <i_epik_Tot_Q>
0

> <i_epik_Tot_abs_Q>
0

> <i_f3d_flags>
0

> <s_lp_Force_Field>
OPLS_2005

> <r_lp_Energy>
18.967034

> <b_lp_Chiralities_Consistent>
1

> <s_lp_Variant>
/home/bortolaa/Project/GT/mario-master/ligands/set505ligs_train.sdf:116-1

> <s_i_glide_gridfile>
struct_1_site_1

> <i_i_glide_lignum>
137

> <i_i_glide_rotatable_bonds>
9

> <r_i_docking_score>
-7.41283950976031

> <r_i_glide_ligand_efficiency>
-0.247094650325344

> <r_i_glide_ligand_efficiency_sa>
-0.767780528667752

> <r_i_glide_ligand_efficiency_ln>
-1.68427790597312

> <r_i_glide_gscore>
-7.41283950976031

> <r_i_glide_lipo>
-2.66915832062015

> <r_i_glide_hbond>
-0.32

> <r_i_glide_metal>
0

> <r_i_glide_rewards>
-2.34077117147551

> <r_i_glide_evdw>
-47.5969314575195

> <r_i_glide_ecoul>
-3.87963938713074

> <r_i_glide_erotb>
0.948176003713137

> <r_i_glide_esite>
-0.0692935404321982

> <r_i_glide_emodel>
-66.736159767868

> <r_i_glide_energy>
-51.4765708446503

> <r_i_glide_einternal>
4.89900922775269

> <i_i_glide_confnum>
117

> <i_i_glide_posenum>
3

> <r_i_glide_eff_state_penalty>
0

> <IC50 (nM)>
196

> <PMID>
26310890

> <r_glide_shape_similarity>
0.922881841659546

> <s_m_subgroup_title>
505 training

> <s_m_subgroupid>
pocket_pv

> <b_m_subgroup_collapsed>
0

$$$$
BindingDB_50189994_mol_1
                    3D
 Schrodinger Suite 2021-2.
 52 55  0  0  1  0            999 V2000
   21.7983   -1.9057   55.1453 N   0  0  0  0  0  0
   23.0989   -1.7539   55.4154 C   0  0  0  0  0  0
   23.9472   -0.9087   54.8307 N   0  0  0  0  0  0
   23.4414   -0.0986   53.8734 C   0  0  0  0  0  0
   21.2607   -1.1149   54.1866 C   0  0  0  0  0  0
   22.0717   -0.1660   53.5081 C   0  0  0  0  0  0
   21.5245    0.6447   52.4891 C   0  0  0  0  0  0
   20.1799    0.4833   52.0781 C   0  0  0  0  0  0
   19.3381   -0.4024   52.7946 C   0  0  0  0  0  0
   19.8885   -1.1968   53.8422 C   0  0  0  0  0  0
   18.0208   -0.4561   52.3629 O   0  0  0  0  0  0
   19.6341    1.0717   50.9520 O   0  0  0  0  0  0
   20.3442    2.0560   50.1804 C   0  0  1  0  0  0
   24.2886    0.8510   53.2749 N   0  0  0  0  0  0
   25.6847    0.9487   53.3401 C   0  0  0  0  0  0
   26.5110   -0.2019   53.3292 C   0  0  0  0  0  0
   27.9133   -0.0784   53.3858 C   0  0  0  0  0  0
   28.4958    1.2068   53.4601 C   0  0  0  0  0  0
   27.6801    2.3616   53.4377 C   0  0  0  0  0  0
   26.2764    2.2335   53.3733 C   0  0  0  0  0  0
   28.9047   -1.5019   53.3762 Cl  0  0  0  0  0  0
   17.0350   -1.0198   53.2170 C   0  0  0  0  0  0
   19.9678    1.8773   48.6956 C   0  0  0  0  0  0
   18.4459    2.0632   48.4764 C   0  0  0  0  0  0
   17.9697    3.3850   48.9889 N   0  3  2  0  0  0
   18.3431    3.6261   50.4227 C   0  0  0  0  0  0
   19.8700    3.4452   50.6670 C   0  0  0  0  0  0
   16.5130    3.5854   48.7387 C   0  0  0  0  0  0
   29.8397    1.3150   53.5826 F   0  0  0  0  0  0
   23.5091   -2.4093   56.1692 H   0  0  0  0  0  0
   22.1826    1.3318   51.9882 H   0  0  0  0  0  0
   19.2727   -1.8915   54.3936 H   0  0  0  0  0  0
   21.4258    1.9790   50.2293 H   0  0  0  0  0  0
   23.8220    1.6269   52.8296 H   0  0  0  0  0  0
   26.0776   -1.1897   53.2809 H   0  0  0  0  0  0
   28.1276    3.3417   53.5008 H   0  0  0  0  0  0
   25.6683    3.1283   53.3700 H   0  0  0  0  0  0
   16.0465   -0.8983   52.7688 H   0  0  0  0  0  0
   17.1995   -2.0852   53.3827 H   0  0  0  0  0  0
   17.0282   -0.5049   54.1749 H   0  0  0  0  0  0
   20.2948    0.8944   48.3540 H   0  0  0  0  0  0
   20.5169    2.5975   48.0851 H   0  0  0  0  0  0
   17.8921    1.2610   48.9696 H   0  0  0  0  0  0
   18.2127    1.9958   47.4144 H   0  0  0  0  0  0
   17.7793    2.9393   51.0608 H   0  0  0  0  0  0
   18.0429    4.6383   50.7106 H   0  0  0  0  0  0
   20.4201    4.2326   50.1477 H   0  0  0  0  0  0
   20.0906    3.5584   51.7273 H   0  0  0  0  0  0
   15.9142    2.8412   49.2586 H   0  0  0  0  0  0
   16.1902    4.5698   49.0747 H   0  0  0  0  0  0
   16.2958    3.5093   47.6747 H   0  0  0  0  0  0
   18.4567    4.0954   48.4434 H   0  0  0  0  0  0
  1  2  1  0  0  0
  1  5  2  0  0  0
  2  3  2  0  0  0
  2 30  1  0  0  0
  3  4  1  0  0  0
  4  6  2  0  0  0
  4 14  1  0  0  0
  5  6  1  0  0  0
  5 10  1  0  0  0
  6  7  1  0  0  0
  7  8  2  0  0  0
  7 31  1  0  0  0
  8  9  1  0  0  0
  8 12  1  0  0  0
  9 10  2  0  0  0
  9 11  1  0  0  0
 10 32  1  0  0  0
 11 22  1  0  0  0
 12 13  1  0  0  0
 13 23  1  0  0  0
 13 27  1  0  0  0
 13 33  1  0  0  0
 14 15  1  0  0  0
 14 34  1  0  0  0
 15 16  2  0  0  0
 15 20  1  0  0  0
 16 17  1  0  0  0
 16 35  1  0  0  0
 17 18  2  0  0  0
 17 21  1  0  0  0
 18 19  1  0  0  0
 18 29  1  0  0  0
 19 20  2  0  0  0
 19 36  1  0  0  0
 20 37  1  0  0  0
 22 38  1  0  0  0
 22 39  1  0  0  0
 22 40  1  0  0  0
 23 24  1  0  0  0
 23 41  1  0  0  0
 23 42  1  0  0  0
 24 25  1  0  0  0
 24 43  1  0  0  0
 24 44  1  0  0  0
 25 26  1  0  0  0
 25 28  1  0  0  0
 25 52  1  0  0  0
 26 27  1  0  0  0
 26 45  1  0  0  0
 26 46  1  0  0  0
 27 47  1  0  0  0
 27 48  1  0  0  0
 28 49  1  0  0  0
 28 50  1  0  0  0
 28 51  1  0  0  0
M  CHG  1  25   1
M  END
> <s_m_entry_id>
326

> <s_m_entry_name>
pocket_pv.137

> <s_m_Source_Path>
/home/bortolaa/Project/GT/mario-master/docking/set505protein_struct_1_site_1_set505ligs_train

> <s_m_Source_File>
pocket_pv.maegz

> <i_m_Source_File_Index>
137

> <From>
www.bindingDB.org

> <BindingDB Reactant_set_id>
50351566

> <Ligand InChI>
InChI=1S/C21H22ClFN4O2/c1-27-7-5-14(6-8-27)29-20-10-15-18(11-19(20)28-2)24-12-25-21(15)26-13-3-4-17(23)16(22)9-13/h3-4,9-12,14H,5-8H2,1-2H3,(H,24,25,26)

> <Ligand InChI Key>
AHPPMJNZFROCCT-UHFFFAOYSA-N

> <BindingDB MonomerID>
50189994

> <BindingDB Ligand Name>
CHEMBL276154::N-(3-chloro-4-fluorophenyl)-7-methoxy-6-(1-methylpiperidin-4-yloxy)quinazolin-4-amine

> <Target Name Assigned by Curator or DataSource>
Epidermal growth factor receptor

> <Target Source Organism According to Curator or DataSource>
Homo sapiens

> <Ki (nM)>


> <Kd (nM)>


> <EC50 (nM)>


> <kon (M-1-s-1)>


> <koff (s-1)>


> <pH>


> <Temp C>


> <Curation/DataSource>
ChEMBL

> <Article DOI>
10.1016/j.bmcl.2006.06.054

> <PubChem AID>


> <Patent Number>


> <Authors>
Ballard, P; Bradbury, RH; Harris, CS; Hennequin, LF; Hickinson, M; Kettle, JG; Kendrew, J; Klinowska, T; Ogilvie, DJ; Pearson, SE; Williams, EJ; Wilson, I

> <Institution>
AstraZeneca

> <Link to Ligand in BindingDB>
http://www.bindingdb.org/bind/chemsearch/marvin/MolStructure.jsp?monomerid=50189994

> <Link to Ligand-Target Pair in BindingDB>
http://www.bindingdb.org/jsp/dbsearch/PrimarySearch_ki.jsp?energyterm=kJ/mole&tag=r21&monomerid=50189994&enzyme=Epidermal+growth+factor+receptor&column=ki&startPg=0&Increment=50&submit=Search

> <Ligand HET ID in PDB>


> <PDB ID(s) for Ligand-Target Complex>


> <PubChem CID>
10173248

> <PubChem SID>
104073416

> <ChEBI ID of Ligand>


> <ChEMBL ID of Ligand>
CHEMBL276154

> <DrugBank ID of Ligand>


> <IUPHAR_GRAC ID of Ligand>


> <KEGG ID of Ligand>


> <ZINC ID of Ligand>
ZINC34375617

> <Number of Protein Chains in Target (>
1

> <BindingDB Target Chain Sequence>
MRPSGTAGAALLALLAALCPASRALEEKKVCQGTSNKLTQLGTFEDHFLSLQRMFNNCEVVLGNLEITYVQRNYDLSFLKTIQEVAGYVLIALNTVERIPLENLQIIRGNMYYENSYALAVLSNYDANKTGLKELPMRNLQEILHGAVRFSNNPALCNVESIQWRDIVSSDFLSNMSMDFQNHLGSCQKCDPSCPNGSCWGAGEENCQKLTKIICAQQCSGRCRGKSPSDCCHNQCAAGCTGPRESDCLVCRKFRDEATCKDTCPPLMLYNPTTYQMDVNPEGKYSFGATCVKKCPRNYVVTDHGSCVRACGADSYEMEEDGVRKCKKCEGPCRKVCNGIGIGEFKDSLSINATNIKHFKNCTSISGDLHILPVAFRGDSFTHTPPLDPQELDILKTVKEITGFLLIQAWPENRTDLHAFENLEIIRGRTKQHGQFSLAVVSLNITSLGLRSLKEISDGDVIISGNKNLCYANTINWKKLFGTSGQKTKIISNRGENSCKATGQVCHALCSPEGCWGPEPRDCVSCRNVSRGRECVDKCNLLEGEPREFVENSECIQCHPECLPQAMNITCTGRGPDNCIQCAHYIDGPHCVKTCPAGVMGENNTLVWKYADAGHVCHLCHPNCTYGCTGPGLEGCPTNGPKIPSIATGMVGALLLLLVVALGIGLFMRRRHIVRKRTLRRLLQERELVEPLTPSGEAPNQALLRILKETEFKKIKVLGSGAFGTVYKGLWIPEGEKVKIPVAIKELREATSPKANKEILDEAYVMASVDNPHVCRLLGICLTSTVQLITQLMPFGCLLDYVREHKDNIGSQYLLNWCVQIAKGMNYLEDRRLVHRDLAARNVLVKTPQHVKITDFGLAKLLGAEEKEYHAEGGKVPIKWMALESILHRIYTHQSDVWSYGVTVWELMTFGSKPYDGIPASEISSILEKGERLPQPPICTIDVYMIMVKCWMIDADSRPKFRELIIEFSKMARDPQRYLVIQGDERMHLPSPTDSNFYRALMDEEDMDDVVDADEYLIPQQGFFSSPSTSRTPLLSSLSATSNNSTVACIDRNGLQSCPIKEDSFLQRYSSDPTGALTEDSIDDTFLPVPEYINQSVPKRPAGSVQNPVYHNQPLNPAPSRDPHYQDPHSTAVGNPEYLNTVQPTCVNSTFDSPAHWAQKGSHQISLDNPDYQQDFFPKEAKPNGIFKGSTAENAEYLRVAPQSSEFIGA

> <PDB ID(s) of Target Chain>
1IVO,1M14,1M17,1MOX,1XKK,1Z9I,2GS2,2GS6,2ITW,2ITX,2ITY,2J5E,2J5F,2J6M,2RF9,2RGP,3B2V,3BEL,3GOP,3POZ,3QWQ,3VJO,3W2O,3W2P,3W2Q,3W2R,3W2S,3W32,3W33,4G5J,4I23,4JQ7,4JQ8,4JR3,4JRV,4KRO,4LI5,4RJ4,4RJ5,4RJ6,4RJ7,4RJ8,4TKS,4UIP,4UV7,4WKQ,4WRG,4ZAU,5C8K,5C8M,5C8N,5CAL,5CAN,5CAO,5CAP,5CAQ,5CAS,5CAU,5CAV,5EDP,5EDQ,5EDR,5EM5,5EM6,5EM7,5EM8,5FED,5GNK,5HCX,5HCY,5HCZ,5HIB,5HIC,5UGB,5WB7,5WB8,5Y25,6S89,6S8A

> <UniProt (SwissProt) Recommended Name of Target Chain>
Epidermal growth factor receptor

> <UniProt (SwissProt) Entry Name of Target Chain>
EGFR_HUMAN

> <UniProt (SwissProt) Primary ID of Target Chain>
P00533

> <UniProt (SwissProt) Secondary ID(s) of Target Chain>
O00688,O00732,P06268,Q14225,Q68GS5,Q92795,Q9BZS2,Q9GZX1,Q9H2C9,Q9H3C9,Q9UMD7,Q9UMD8,Q9UMG5

> <UniProt (SwissProt) Alternative ID(s) of Target Chain>


> <UniProt (TrEMBL) Submitted Name of Target Chain>


> <UniProt (TrEMBL) Entry Name of Target Chain>


> <UniProt (TrEMBL) Primary ID of Target Chain>


> <UniProt (TrEMBL) Secondary ID(s) of Target Chain>


> <UniProt (TrEMBL) Alternative ID(s) of Target Chain>


> <training label>
8

> <i_lp_mmshare_version>
54117

> <s_epik_input>
W2NIXTFbY0hdYyhGKWMoQ2wpW2NIXWMxW05IXWMobltjSF1uMiljKGMyMylbY0hdYyhjKFtjSF0zKU9bQ0gzXSlPW0NIXTRbQ0gyXVtDSDJdTihbQ0gzXSlbQ0gyXVtDSDJdNA==

> <s_epik_cmdline>
J2VwaWtfcHl0aG9uJywgJy1waHQnLCAnMC4xJywgJy1waCcsICc3LjQnLCAnLXRuJywgJzgnLCAnLW1hJywgJzIwMCcsICctaW1hZScsICc8aW5maWxlLm1hZT4nLCAnLW9tYWUnLCAnPG91dGZpbGUubWFlPic=

> <r_lp_tautomer_probability>
1

> <r_epik_Ionization_Penalty>
  0.0231

> <r_epik_Ionization_Penalty_Charging>
  0.0226

> <r_epik_Ionization_Penalty_Neutral>
  0.0005

> <r_epik_State_Penalty>
  0.0000

> <r_epik_Charging_Adjusted_Penalty>
0.0225555000722947

> <i_epik_Tot_Q>
1

> <i_epik_Tot_abs_Q>
1

> <i_f3d_flags>
0

> <s_lp_Force_Field>
OPLS_2005

> <r_lp_Energy>
33.152232

> <b_lp_Chiralities_Consistent>
1

> <s_lp_Variant>
BindingDB_50189994_mol_1-2

> <s_i_glide_gridfile>
struct_1_site_1

> <i_i_glide_lignum>
233

> <i_i_glide_rotatable_bonds>
5

> <r_i_docking_score>
-7.39848186382449

> <r_i_glide_ligand_efficiency>
-0.25512006426981

> <r_i_glide_ligand_efficiency_sa>
-0.783809665146419

> <r_i_glide_ligand_efficiency_ln>
-1.69406473750312

> <r_i_glide_gscore>
-7.39848186382449

> <r_i_glide_lipo>
-2.90262091759234

> <r_i_glide_hbond>
-0.32

> <r_i_glide_metal>
0

> <r_i_glide_rewards>
-1.70472622576868

> <r_i_glide_evdw>
-41.4448280334473

> <r_i_glide_ecoul>
-5.23695516586304

> <r_i_glide_erotb>
0.452832715659473

> <r_i_glide_esite>
-0.066182759571125

> <r_i_glide_emodel>
-57.8399643455421

> <r_i_glide_energy>
-46.6817831993103

> <r_i_glide_einternal>
2.00482726097107

> <i_i_glide_confnum>
8

> <i_i_glide_posenum>
324

> <r_i_glide_eff_state_penalty>
0

> <IC50 (nM)>
10

> <PMID>
16806916

> <r_glide_shape_similarity>
0.877822577953339

> <s_m_subgroup_title>
505 training

> <s_m_subgroupid>
pocket_pv

> <b_m_subgroup_collapsed>
0

$$$$
BindingDB_50292728_mol_1
                    3D
 Schrodinger Suite 2021-2.
 48 51  0  0  1  0            999 V2000
   21.8077   -1.8961   55.1413 N   0  0  0  0  0  0
   23.0979   -1.7358   55.4102 C   0  0  0  0  0  0
   23.9391   -0.8966   54.8234 N   0  0  0  0  0  0
   23.4384   -0.0974   53.8675 C   0  0  0  0  0  0
   21.2776   -1.1157   54.1841 C   0  0  0  0  0  0
   22.0761   -0.1692   53.5062 C   0  0  0  0  0  0
   21.5126    0.6471   52.5075 C   0  0  0  0  0  0
   19.9211   -1.2193   53.8442 C   0  0  0  0  0  0
   24.2888    0.8476   53.2766 N   0  0  0  0  0  0
   25.6833    0.9478   53.3427 C   0  0  0  0  0  0
   26.5146   -0.1887   53.3336 C   0  0  0  0  0  0
   27.9104   -0.0505   53.3827 C   0  0  0  0  0  0
   28.4905    1.2238   53.4376 C   0  0  0  0  0  0
   27.6691    2.3591   53.4235 C   0  0  0  0  0  0
   26.2730    2.2238   53.3698 C   0  0  0  0  0  0
   28.9093   -1.4466   53.3746 Cl  0  0  0  0  0  0
   19.3600   -0.4124   52.8516 C   0  0  0  0  0  0
   20.1629    0.5142   52.1609 C   0  0  0  0  0  0
   19.6523    1.3015   51.1661 O   0  0  0  0  0  0
   18.3429    0.9627   50.7053 C   0  0  1  0  0  0
   17.4648    0.5684   51.9215 C   0  0  2  0  0  0
   18.0329   -0.5509   52.5749 O   0  0  0  0  0  0
   17.8464    2.2262   49.9696 C   0  0  0  0  0  0
   18.8906    2.9286   49.3115 O   0  0  0  0  0  0
   19.4260    2.2619   48.1953 C   0  0  0  0  0  0
   16.0008    0.1880   51.6856 C   0  0  0  0  0  0
   15.4202    0.0841   52.9751 O   0  0  0  0  0  0
   14.0279   -0.1372   52.9736 C   0  0  0  0  0  0
   23.5120   -2.3764   56.1739 H   0  0  0  0  0  0
   22.1077    1.3684   51.9678 H   0  0  0  0  0  0
   19.2936   -1.9229   54.3709 H   0  0  0  0  0  0
   23.8218    1.6209   52.8351 H   0  0  0  0  0  0
   26.0872   -1.1793   53.2833 H   0  0  0  0  0  0
   29.5656    1.3334   53.4787 H   0  0  0  0  0  0
   28.1081    3.3460   53.4553 H   0  0  0  0  0  0
   25.6619    3.1158   53.3609 H   0  0  0  0  0  0
   18.3964    0.1311   50.0057 H   0  0  0  0  0  0
   17.4764    1.4337   52.5742 H   0  0  0  0  0  0
   17.0413    1.9886   49.2734 H   0  0  0  0  0  0
   17.4339    2.9244   50.6974 H   0  0  0  0  0  0
   20.2007    2.8771   47.7416 H   0  0  0  0  0  0
   19.8847    1.3103   48.4663 H   0  0  0  0  0  0
   18.6587    2.0901   47.4405 H   0  0  0  0  0  0
   15.9179   -0.7549   51.1428 H   0  0  0  0  0  0
   15.4909    0.9593   51.1061 H   0  0  0  0  0  0
   13.6871   -0.3090   53.9952 H   0  0  0  0  0  0
   13.7600   -1.0081   52.3758 H   0  0  0  0  0  0
   13.5017    0.7347   52.5863 H   0  0  0  0  0  0
  1  2  1  0  0  0
  1  5  2  0  0  0
  2  3  2  0  0  0
  2 29  1  0  0  0
  3  4  1  0  0  0
  4  6  2  0  0  0
  4  9  1  0  0  0
  5  6  1  0  0  0
  5  8  1  0  0  0
  6  7  1  0  0  0
  7 18  2  0  0  0
  7 30  1  0  0  0
  8 17  2  0  0  0
  8 31  1  0  0  0
  9 10  1  0  0  0
  9 32  1  0  0  0
 10 11  1  0  0  0
 10 15  2  0  0  0
 11 12  2  0  0  0
 11 33  1  0  0  0
 12 13  1  0  0  0
 12 16  1  0  0  0
 13 14  2  0  0  0
 13 34  1  0  0  0
 14 15  1  0  0  0
 14 35  1  0  0  0
 15 36  1  0  0  0
 17 18  1  0  0  0
 17 22  1  0  0  0
 18 19  1  0  0  0
 19 20  1  0  0  0
 20 21  1  0  0  0
 20 23  1  0  0  0
 20 37  1  0  0  0
 21 22  1  0  0  0
 21 26  1  0  0  0
 21 38  1  0  0  0
 23 24  1  0  0  0
 23 39  1  0  0  0
 23 40  1  0  0  0
 24 25  1  0  0  0
 25 41  1  0  0  0
 25 42  1  0  0  0
 25 43  1  0  0  0
 26 27  1  0  0  0
 26 44  1  0  0  0
 26 45  1  0  0  0
 27 28  1  0  0  0
 28 46  1  0  0  0
 28 47  1  0  0  0
 28 48  1  0  0  0
M  END
> <s_m_entry_id>
327

> <s_m_entry_name>
pocket_pv.138

> <s_m_Source_Path>
/home/bortolaa/Project/GT/mario-master/docking/set505protein_struct_1_site_1_set505ligs_train

> <s_m_Source_File>
pocket_pv.maegz

> <i_m_Source_File_Index>
138

> <From>
www.bindingDB.org

> <BindingDB Reactant_set_id>
50505063

> <Ligand InChI>
InChI=1S/C20H20ClN3O4/c1-25-9-18-19(10-26-2)28-17-8-15-14(7-16(17)27-18)20(23-11-22-15)24-13-5-3-4-12(21)6-13/h3-8,11,18-19H,9-10H2,1-2H3,(H,22,23,24)/t18-,19-/m1/s1

> <Ligand InChI Key>
OGSIXNADGNBMNO-RTBURBONSA-N

> <BindingDB MonomerID>
50292728

> <BindingDB Ligand Name>
(7R,8R)-N-(3-chlorophenyl)-7,8-bis(methoxymethyl)-7,8-dihydro-[1,4]dioxino[2,3-g]quinazolin-4-amine::CHEMBL461792

> <Target Name Assigned by Curator or DataSource>
Epidermal growth factor receptor

> <Target Source Organism According to Curator or DataSource>
Homo sapiens

> <Ki (nM)>


> <Kd (nM)>


> <EC50 (nM)>


> <kon (M-1-s-1)>


> <koff (s-1)>


> <pH>


> <Temp C>


> <Curation/DataSource>
ChEMBL

> <Article DOI>
10.1021/jm800829v

> <PubChem AID>


> <Patent Number>


> <Authors>
La Motta, C; Sartini, S; Tuccinardi, T; Nerini, E; Da Settimo, F; Martinelli, A

> <Institution>
Universit&#163; di Pisa

> <Link to Ligand in BindingDB>
http://www.bindingdb.org/bind/chemsearch/marvin/MolStructure.jsp?monomerid=50292728

> <Link to Ligand-Target Pair in BindingDB>
http://www.bindingdb.org/jsp/dbsearch/PrimarySearch_ki.jsp?energyterm=kJ/mole&tag=r21&monomerid=50292728&enzyme=Epidermal+growth+factor+receptor&column=ki&startPg=0&Increment=50&submit=Search

> <Ligand HET ID in PDB>


> <PDB ID(s) for Ligand-Target Complex>


> <PubChem CID>
11509595

> <PubChem SID>
104134279

> <ChEBI ID of Ligand>


> <ChEMBL ID of Ligand>
CHEMBL461792

> <DrugBank ID of Ligand>


> <IUPHAR_GRAC ID of Ligand>


> <KEGG ID of Ligand>


> <ZINC ID of Ligand>
ZINC40866784

> <Number of Protein Chains in Target (>
1

> <BindingDB Target Chain Sequence>
MRPSGTAGAALLALLAALCPASRALEEKKVCQGTSNKLTQLGTFEDHFLSLQRMFNNCEVVLGNLEITYVQRNYDLSFLKTIQEVAGYVLIALNTVERIPLENLQIIRGNMYYENSYALAVLSNYDANKTGLKELPMRNLQEILHGAVRFSNNPALCNVESIQWRDIVSSDFLSNMSMDFQNHLGSCQKCDPSCPNGSCWGAGEENCQKLTKIICAQQCSGRCRGKSPSDCCHNQCAAGCTGPRESDCLVCRKFRDEATCKDTCPPLMLYNPTTYQMDVNPEGKYSFGATCVKKCPRNYVVTDHGSCVRACGADSYEMEEDGVRKCKKCEGPCRKVCNGIGIGEFKDSLSINATNIKHFKNCTSISGDLHILPVAFRGDSFTHTPPLDPQELDILKTVKEITGFLLIQAWPENRTDLHAFENLEIIRGRTKQHGQFSLAVVSLNITSLGLRSLKEISDGDVIISGNKNLCYANTINWKKLFGTSGQKTKIISNRGENSCKATGQVCHALCSPEGCWGPEPRDCVSCRNVSRGRECVDKCNLLEGEPREFVENSECIQCHPECLPQAMNITCTGRGPDNCIQCAHYIDGPHCVKTCPAGVMGENNTLVWKYADAGHVCHLCHPNCTYGCTGPGLEGCPTNGPKIPSIATGMVGALLLLLVVALGIGLFMRRRHIVRKRTLRRLLQERELVEPLTPSGEAPNQALLRILKETEFKKIKVLGSGAFGTVYKGLWIPEGEKVKIPVAIKELREATSPKANKEILDEAYVMASVDNPHVCRLLGICLTSTVQLITQLMPFGCLLDYVREHKDNIGSQYLLNWCVQIAKGMNYLEDRRLVHRDLAARNVLVKTPQHVKITDFGLAKLLGAEEKEYHAEGGKVPIKWMALESILHRIYTHQSDVWSYGVTVWELMTFGSKPYDGIPASEISSILEKGERLPQPPICTIDVYMIMVKCWMIDADSRPKFRELIIEFSKMARDPQRYLVIQGDERMHLPSPTDSNFYRALMDEEDMDDVVDADEYLIPQQGFFSSPSTSRTPLLSSLSATSNNSTVACIDRNGLQSCPIKEDSFLQRYSSDPTGALTEDSIDDTFLPVPEYINQSVPKRPAGSVQNPVYHNQPLNPAPSRDPHYQDPHSTAVGNPEYLNTVQPTCVNSTFDSPAHWAQKGSHQISLDNPDYQQDFFPKEAKPNGIFKGSTAENAEYLRVAPQSSEFIGA

> <PDB ID(s) of Target Chain>
1IVO,1M14,1M17,1MOX,1XKK,1Z9I,2GS2,2GS6,2ITW,2ITX,2ITY,2J5E,2J5F,2J6M,2RF9,2RGP,3B2V,3BEL,3GOP,3POZ,3QWQ,3VJO,3W2O,3W2P,3W2Q,3W2R,3W2S,3W32,3W33,4G5J,4I23,4JQ7,4JQ8,4JR3,4JRV,4KRO,4LI5,4RJ4,4RJ5,4RJ6,4RJ7,4RJ8,4TKS,4UIP,4UV7,4WKQ,4WRG,4ZAU,5C8K,5C8M,5C8N,5CAL,5CAN,5CAO,5CAP,5CAQ,5CAS,5CAU,5CAV,5EDP,5EDQ,5EDR,5EM5,5EM6,5EM7,5EM8,5FED,5GNK,5HCX,5HCY,5HCZ,5HIB,5HIC,5UGB,5WB7,5WB8,5Y25,6S89,6S8A

> <UniProt (SwissProt) Recommended Name of Target Chain>
Epidermal growth factor receptor

> <UniProt (SwissProt) Entry Name of Target Chain>
EGFR_HUMAN

> <UniProt (SwissProt) Primary ID of Target Chain>
P00533

> <UniProt (SwissProt) Secondary ID(s) of Target Chain>
O00688,O00732,P06268,Q14225,Q68GS5,Q92795,Q9BZS2,Q9GZX1,Q9H2C9,Q9H3C9,Q9UMD7,Q9UMD8,Q9UMG5

> <UniProt (SwissProt) Alternative ID(s) of Target Chain>


> <UniProt (TrEMBL) Submitted Name of Target Chain>


> <UniProt (TrEMBL) Entry Name of Target Chain>


> <UniProt (TrEMBL) Primary ID of Target Chain>


> <UniProt (TrEMBL) Secondary ID(s) of Target Chain>


> <UniProt (TrEMBL) Alternative ID(s) of Target Chain>


> <training label>
7.99654

> <i_lp_mmshare_version>
54117

> <s_epik_input>
W2NIXTFbY0hdW2NIXWMoQ2wpW2NIXWMxW05IXWMobltjSF1uMiljKGMyMylbY0hdYzRjKFtjSF0zKU9bQ0BIXShbQ0gyXU9bQ0gzXSlbQ0BIXShPNClbQ0gyXU9bQ0gzXQ==

> <s_epik_cmdline>
J2VwaWtfcHl0aG9uJywgJy1waHQnLCAnMC4xJywgJy1waCcsICc3LjQnLCAnLXRuJywgJzgnLCAnLW1hJywgJzIwMCcsICctaW1hZScsICc8aW5maWxlLm1hZT4nLCAnLW9tYWUnLCAnPG91dGZpbGUubWFlPic=

> <r_lp_tautomer_probability>
1

> <r_epik_Ionization_Penalty>
  0.0010

> <r_epik_Ionization_Penalty_Charging>
  0.0000

> <r_epik_Ionization_Penalty_Neutral>
  0.0010

> <r_epik_State_Penalty>
  0.0000

> <r_epik_Charging_Adjusted_Penalty>
0

> <i_epik_Tot_Q>
0

> <i_epik_Tot_abs_Q>
0

> <i_f3d_flags>
0

> <s_lp_Force_Field>
OPLS_2005

> <r_lp_Energy>
18.151859

> <b_lp_Chiralities_Consistent>
1

> <s_lp_Variant>
BindingDB_50292728_mol_1-1

> <s_i_glide_gridfile>
struct_1_site_1

> <i_i_glide_lignum>
229

> <i_i_glide_rotatable_bonds>
6

> <r_i_docking_score>
-7.39506844950549

> <r_i_glide_ligand_efficiency>
-0.264109587482339

> <r_i_glide_ligand_efficiency_sa>
-0.8019922598247

> <r_i_glide_ligand_efficiency_ln>
-1.70699892679037

> <r_i_glide_gscore>
-7.39506844950549

> <r_i_glide_lipo>
-2.89948948762421

> <r_i_glide_hbond>
-0.32

> <r_i_glide_metal>
0

> <r_i_glide_rewards>
-1.8294729869553

> <r_i_glide_evdw>
-41.7025337219238

> <r_i_glide_ecoul>
-4.97960186004639

> <r_i_glide_erotb>
0.485960990177168

> <r_i_glide_esite>
0

> <r_i_glide_emodel>
-60.9752304148752

> <r_i_glide_energy>
-46.6821355819702

> <r_i_glide_einternal>
4.18099403381348

> <i_i_glide_confnum>
46

> <i_i_glide_posenum>
64

> <r_i_glide_eff_state_penalty>
0

> <IC50 (nM)>
10.08

> <PMID>
19170633

> <r_glide_shape_similarity>
0.929948925971985

> <s_m_subgroup_title>
505 training

> <s_m_subgroupid>
pocket_pv

> <b_m_subgroup_collapsed>
0

$$$$
BindingDB_50189999_mol_1
                    3D
 Schrodinger Suite 2021-2.
 52 55  0  0  1  0            999 V2000
   21.8041   -1.9063   55.1500 N   0  0  0  0  0  0
   23.1010   -1.7509   55.4178 C   0  0  0  0  0  0
   23.9423   -0.9029   54.8290 N   0  0  0  0  0  0
   23.4356   -0.0994   53.8659 C   0  0  0  0  0  0
   21.2661   -1.1185   54.1929 C   0  0  0  0  0  0
   22.0658   -0.1684   53.4964 C   0  0  0  0  0  0
   21.4977    0.6204   52.4597 C   0  0  0  0  0  0
   20.1346    0.4403   52.1137 C   0  0  0  0  0  0
   19.3125   -0.4307   52.8589 C   0  0  0  0  0  0
   19.8928   -1.2184   53.8816 C   0  0  0  0  0  0
   17.9724   -0.4745   52.5002 O   0  0  0  0  0  0
   19.5099    0.9506   51.0059 O   0  0  0  0  0  0
   19.9694    2.0690   50.2733 C   0  0  1  0  0  0
   24.2875    0.8398   53.2625 N   0  0  0  0  0  0
   25.6876    0.9364   53.3385 C   0  0  0  0  0  0
   26.5258   -0.2054   53.3337 C   0  0  0  0  0  0
   27.9308   -0.0622   53.3848 C   0  0  0  0  0  0
   28.5055    1.2280   53.4405 C   0  0  0  0  0  0
   27.6754    2.3693   53.4279 C   0  0  0  0  0  0
   26.2709    2.2228   53.3702 C   0  0  0  0  0  0
   28.9440   -1.4663   53.3748 Cl  0  0  0  0  0  0
   17.0561   -1.1789   53.3280 C   0  0  0  0  0  0
   19.5880    1.6739   48.8291 C   0  0  0  0  0  0
   19.3887    2.8718   47.8896 C   0  0  0  0  0  0
   18.3916    3.8106   48.4794 N   0  3  1  0  0  0
   18.9022    4.3778   49.7650 C   0  0  0  0  0  0
   19.1189    3.2546   50.8049 C   0  0  0  0  0  0
   17.9403    4.8612   47.5246 C   0  0  0  0  0  0
   25.4597    3.3089   53.3535 F   0  0  0  0  0  0
   23.5178   -2.3973   56.1747 H   0  0  0  0  0  0
   22.1217    1.2866   51.8872 H   0  0  0  0  0  0
   19.2954   -1.9157   54.4483 H   0  0  0  0  0  0
   21.0364    2.2759   50.3402 H   0  0  0  0  0  0
   23.8233    1.6288   52.8324 H   0  0  0  0  0  0
   26.0999   -1.1969   53.2819 H   0  0  0  0  0  0
   29.5802    1.3439   53.4829 H   0  0  0  0  0  0
   28.1076    3.3589   53.4611 H   0  0  0  0  0  0
   16.0371   -0.9850   52.9934 H   0  0  0  0  0  0
   17.2276   -2.2541   53.2708 H   0  0  0  0  0  0
   17.1287   -0.8656   54.3698 H   0  0  0  0  0  0
   18.6415    1.1331   48.8580 H   0  0  0  0  0  0
   20.3222    0.9798   48.4204 H   0  0  0  0  0  0
   19.0329    2.5143   46.9225 H   0  0  0  0  0  0
   20.3344    3.3861   47.7127 H   0  0  0  0  0  0
   18.1885    5.1033   50.1592 H   0  0  0  0  0  0
   19.8353    4.9156   49.5866 H   0  0  0  0  0  0
   19.5682    3.6551   51.7144 H   0  0  0  0  0  0
   18.1340    2.8848   51.0975 H   0  0  0  0  0  0
   18.7788    5.4817   47.2032 H   0  0  0  0  0  0
   17.4858    4.4119   46.6401 H   0  0  0  0  0  0
   17.1954    5.5111   47.9905 H   0  0  0  0  0  0
   17.5699    3.2519   48.7021 H   0  0  0  0  0  0
  1  2  1  0  0  0
  1  5  2  0  0  0
  2  3  2  0  0  0
  2 30  1  0  0  0
  3  4  1  0  0  0
  4  6  2  0  0  0
  4 14  1  0  0  0
  5  6  1  0  0  0
  5 10  1  0  0  0
  6  7  1  0  0  0
  7  8  2  0  0  0
  7 31  1  0  0  0
  8  9  1  0  0  0
  8 12  1  0  0  0
  9 10  2  0  0  0
  9 11  1  0  0  0
 10 32  1  0  0  0
 11 22  1  0  0  0
 12 13  1  0  0  0
 13 23  1  0  0  0
 13 27  1  0  0  0
 13 33  1  0  0  0
 14 15  1  0  0  0
 14 34  1  0  0  0
 15 16  2  0  0  0
 15 20  1  0  0  0
 16 17  1  0  0  0
 16 35  1  0  0  0
 17 18  2  0  0  0
 17 21  1  0  0  0
 18 19  1  0  0  0
 18 36  1  0  0  0
 19 20  2  0  0  0
 19 37  1  0  0  0
 20 29  1  0  0  0
 22 38  1  0  0  0
 22 39  1  0  0  0
 22 40  1  0  0  0
 23 24  1  0  0  0
 23 41  1  0  0  0
 23 42  1  0  0  0
 24 25  1  0  0  0
 24 43  1  0  0  0
 24 44  1  0  0  0
 25 26  1  0  0  0
 25 28  1  0  0  0
 25 52  1  0  0  0
 26 27  1  0  0  0
 26 45  1  0  0  0
 26 46  1  0  0  0
 27 47  1  0  0  0
 27 48  1  0  0  0
 28 49  1  0  0  0
 28 50  1  0  0  0
 28 51  1  0  0  0
M  CHG  1  25   1
M  END
> <s_m_entry_id>
328

> <s_m_entry_name>
pocket_pv.139

> <s_m_Source_Path>
/home/bortolaa/Project/GT/mario-master/docking/set505protein_struct_1_site_1_set505ligs_train

> <s_m_Source_File>
pocket_pv.maegz

> <i_m_Source_File_Index>
139

> <From>
www.bindingDB.org

> <BindingDB Reactant_set_id>
50351572

> <Ligand InChI>
InChI=1S/C21H22ClFN4O2/c1-27-7-5-14(6-8-27)29-20-10-15-17(11-19(20)28-2)24-12-25-21(15)26-18-9-13(22)3-4-16(18)23/h3-4,9-12,14H,5-8H2,1-2H3,(H,24,25,26)

> <Ligand InChI Key>
VDAKPUKXYCLOOX-UHFFFAOYSA-N

> <BindingDB MonomerID>
50189999

> <BindingDB Ligand Name>
CHEMBL214631::N-(5-chloro-2-fluorophenyl)-7-methoxy-6-(1-methylpiperidin-4-yloxy)quinazolin-4-amine

> <Target Name Assigned by Curator or DataSource>
Epidermal growth factor receptor

> <Target Source Organism According to Curator or DataSource>
Homo sapiens

> <Ki (nM)>


> <Kd (nM)>


> <EC50 (nM)>


> <kon (M-1-s-1)>


> <koff (s-1)>


> <pH>


> <Temp C>


> <Curation/DataSource>
ChEMBL

> <Article DOI>
10.1016/j.bmcl.2006.06.054

> <PubChem AID>


> <Patent Number>


> <Authors>
Ballard, P; Bradbury, RH; Harris, CS; Hennequin, LF; Hickinson, M; Kettle, JG; Kendrew, J; Klinowska, T; Ogilvie, DJ; Pearson, SE; Williams, EJ; Wilson, I

> <Institution>
AstraZeneca

> <Link to Ligand in BindingDB>
http://www.bindingdb.org/bind/chemsearch/marvin/MolStructure.jsp?monomerid=50189999

> <Link to Ligand-Target Pair in BindingDB>
http://www.bindingdb.org/jsp/dbsearch/PrimarySearch_ki.jsp?energyterm=kJ/mole&tag=r21&monomerid=50189999&enzyme=Epidermal+growth+factor+receptor&column=ki&startPg=0&Increment=50&submit=Search

> <Ligand HET ID in PDB>


> <PDB ID(s) for Ligand-Target Complex>


> <PubChem CID>
44416719

> <PubChem SID>
104073421

> <ChEBI ID of Ligand>


> <ChEMBL ID of Ligand>
CHEMBL214631

> <DrugBank ID of Ligand>


> <IUPHAR_GRAC ID of Ligand>


> <KEGG ID of Ligand>


> <ZINC ID of Ligand>
ZINC34800129

> <Number of Protein Chains in Target (>
1

> <BindingDB Target Chain Sequence>
MRPSGTAGAALLALLAALCPASRALEEKKVCQGTSNKLTQLGTFEDHFLSLQRMFNNCEVVLGNLEITYVQRNYDLSFLKTIQEVAGYVLIALNTVERIPLENLQIIRGNMYYENSYALAVLSNYDANKTGLKELPMRNLQEILHGAVRFSNNPALCNVESIQWRDIVSSDFLSNMSMDFQNHLGSCQKCDPSCPNGSCWGAGEENCQKLTKIICAQQCSGRCRGKSPSDCCHNQCAAGCTGPRESDCLVCRKFRDEATCKDTCPPLMLYNPTTYQMDVNPEGKYSFGATCVKKCPRNYVVTDHGSCVRACGADSYEMEEDGVRKCKKCEGPCRKVCNGIGIGEFKDSLSINATNIKHFKNCTSISGDLHILPVAFRGDSFTHTPPLDPQELDILKTVKEITGFLLIQAWPENRTDLHAFENLEIIRGRTKQHGQFSLAVVSLNITSLGLRSLKEISDGDVIISGNKNLCYANTINWKKLFGTSGQKTKIISNRGENSCKATGQVCHALCSPEGCWGPEPRDCVSCRNVSRGRECVDKCNLLEGEPREFVENSECIQCHPECLPQAMNITCTGRGPDNCIQCAHYIDGPHCVKTCPAGVMGENNTLVWKYADAGHVCHLCHPNCTYGCTGPGLEGCPTNGPKIPSIATGMVGALLLLLVVALGIGLFMRRRHIVRKRTLRRLLQERELVEPLTPSGEAPNQALLRILKETEFKKIKVLGSGAFGTVYKGLWIPEGEKVKIPVAIKELREATSPKANKEILDEAYVMASVDNPHVCRLLGICLTSTVQLITQLMPFGCLLDYVREHKDNIGSQYLLNWCVQIAKGMNYLEDRRLVHRDLAARNVLVKTPQHVKITDFGLAKLLGAEEKEYHAEGGKVPIKWMALESILHRIYTHQSDVWSYGVTVWELMTFGSKPYDGIPASEISSILEKGERLPQPPICTIDVYMIMVKCWMIDADSRPKFRELIIEFSKMARDPQRYLVIQGDERMHLPSPTDSNFYRALMDEEDMDDVVDADEYLIPQQGFFSSPSTSRTPLLSSLSATSNNSTVACIDRNGLQSCPIKEDSFLQRYSSDPTGALTEDSIDDTFLPVPEYINQSVPKRPAGSVQNPVYHNQPLNPAPSRDPHYQDPHSTAVGNPEYLNTVQPTCVNSTFDSPAHWAQKGSHQISLDNPDYQQDFFPKEAKPNGIFKGSTAENAEYLRVAPQSSEFIGA

> <PDB ID(s) of Target Chain>
1IVO,1M14,1M17,1MOX,1XKK,1Z9I,2GS2,2GS6,2ITW,2ITX,2ITY,2J5E,2J5F,2J6M,2RF9,2RGP,3B2V,3BEL,3GOP,3POZ,3QWQ,3VJO,3W2O,3W2P,3W2Q,3W2R,3W2S,3W32,3W33,4G5J,4I23,4JQ7,4JQ8,4JR3,4JRV,4KRO,4LI5,4RJ4,4RJ5,4RJ6,4RJ7,4RJ8,4TKS,4UIP,4UV7,4WKQ,4WRG,4ZAU,5C8K,5C8M,5C8N,5CAL,5CAN,5CAO,5CAP,5CAQ,5CAS,5CAU,5CAV,5EDP,5EDQ,5EDR,5EM5,5EM6,5EM7,5EM8,5FED,5GNK,5HCX,5HCY,5HCZ,5HIB,5HIC,5UGB,5WB7,5WB8,5Y25,6S89,6S8A

> <UniProt (SwissProt) Recommended Name of Target Chain>
Epidermal growth factor receptor

> <UniProt (SwissProt) Entry Name of Target Chain>
EGFR_HUMAN

> <UniProt (SwissProt) Primary ID of Target Chain>
P00533

> <UniProt (SwissProt) Secondary ID(s) of Target Chain>
O00688,O00732,P06268,Q14225,Q68GS5,Q92795,Q9BZS2,Q9GZX1,Q9H2C9,Q9H3C9,Q9UMD7,Q9UMD8,Q9UMG5

> <UniProt (SwissProt) Alternative ID(s) of Target Chain>


> <UniProt (TrEMBL) Submitted Name of Target Chain>


> <UniProt (TrEMBL) Entry Name of Target Chain>


> <UniProt (TrEMBL) Primary ID of Target Chain>


> <UniProt (TrEMBL) Secondary ID(s) of Target Chain>


> <UniProt (TrEMBL) Alternative ID(s) of Target Chain>


> <training label>
6.97469

> <i_lp_mmshare_version>
54117

> <s_epik_input>
RmMxW2NIXVtjSF1jKENsKVtjSF1jMVtOSF1jKG5bY0hdbjIpYyhjMjMpW2NIXWMoYyhbY0hdMylPW0NIM10pT1tDSF00W0NIMl1bQ0gyXU4oW0NIM10pW0NIMl1bQ0gyXTQ=

> <s_epik_cmdline>
J2VwaWtfcHl0aG9uJywgJy1waHQnLCAnMC4xJywgJy1waCcsICc3LjQnLCAnLXRuJywgJzgnLCAnLW1hJywgJzIwMCcsICctaW1hZScsICc8aW5maWxlLm1hZT4nLCAnLW9tYWUnLCAnPG91dGZpbGUubWFlPic=

> <r_lp_tautomer_probability>
1

> <r_epik_Ionization_Penalty>
  0.0231

> <r_epik_Ionization_Penalty_Charging>
  0.0226

> <r_epik_Ionization_Penalty_Neutral>
  0.0005

> <r_epik_State_Penalty>
  0.0000

> <r_epik_Charging_Adjusted_Penalty>
0.0225555000722947

> <i_epik_Tot_Q>
1

> <i_epik_Tot_abs_Q>
1

> <i_f3d_flags>
0

> <s_lp_Force_Field>
OPLS_2005

> <r_lp_Energy>
35.45451

> <b_lp_Chiralities_Consistent>
1

> <s_lp_Variant>
BindingDB_50189999_mol_1-1

> <s_i_glide_gridfile>
struct_1_site_1

> <i_i_glide_lignum>
151

> <i_i_glide_rotatable_bonds>
5

> <r_i_docking_score>
-7.39253318413947

> <r_i_glide_ligand_efficiency>
-0.25491493738412

> <r_i_glide_ligand_efficiency_sa>
-0.783179450364819

> <r_i_glide_ligand_efficiency_ln>
-1.69270264070075

> <r_i_glide_gscore>
-7.39253318413947

> <r_i_glide_lipo>
-2.88068596617116

> <r_i_glide_hbond>
-0.32

> <r_i_glide_metal>
0

> <r_i_glide_rewards>
-1.70567245961758

> <r_i_glide_evdw>
-42.2178916931152

> <r_i_glide_ecoul>
-4.84411287307739

> <r_i_glide_erotb>
0.452832715659473

> <r_i_glide_esite>
-0.101495958392834

> <r_i_glide_emodel>
-58.0550118153814

> <r_i_glide_energy>
-47.0620045661926

> <r_i_glide_einternal>
1.48971581459045

> <i_i_glide_confnum>
3

> <i_i_glide_posenum>
3

> <r_i_glide_eff_state_penalty>
0

> <IC50 (nM)>
106

> <PMID>
16806916

> <r_glide_shape_similarity>
0.86149662733078

> <s_m_subgroup_title>
505 training

> <s_m_subgroupid>
pocket_pv

> <b_m_subgroup_collapsed>
0

$$$$
/home/bortolaa/Project/GT/mario-master/ligands/set505ligs_train.sdf:203
                    3D
 Schrodinger Suite 2021-2.
 63 65  0  0  1  0            999 V2000
   20.1210    0.5005   52.1406 C   0  0  0  0  0  0
   19.3438   -0.4639   52.8369 C   0  0  0  0  0  0
   19.9123   -1.2468   53.8527 C   0  0  0  0  0  0
   21.4819    0.6501   52.4923 C   0  0  0  0  0  0
   22.0655   -0.1634   53.4995 C   0  0  0  0  0  0
   21.2725   -1.1197   54.1885 C   0  0  0  0  0  0
   21.8078   -1.9035   55.1471 N   0  0  0  0  0  0
   23.1026   -1.7439   55.4174 C   0  0  0  0  0  0
   23.9424   -0.8939   54.8294 N   0  0  0  0  0  0
   23.4357   -0.0924   53.8660 C   0  0  0  0  0  0
   19.6153    1.3022   51.1295 O   0  0  0  0  0  0
   24.2847    0.8558   53.2729 N   0  0  0  0  0  0
   25.6833    0.9544   53.3424 C   0  0  0  0  0  0
   26.5138   -0.1889   53.3338 C   0  0  0  0  0  0
   27.9163   -0.0515   53.3842 C   0  0  0  0  0  0
   28.5034    1.2306   53.4405 C   0  0  0  0  0  0
   27.6769    2.3709   53.4257 C   0  0  0  0  0  0
   26.2745    2.2357   53.3703 C   0  0  0  0  0  0
   28.7411   -1.2456   53.3684 C   0  0  0  0  0  0
   29.3709   -2.2913   53.3599 C   0  0  0  0  0  0
   18.3128    0.9867   50.6074 C   0  0  0  0  0  0
   17.1477    1.3525   51.5757 C   0  0  0  0  0  0
   15.9758    0.3329   51.6482 C   0  0  0  0  0  0
   15.2234    0.4002   52.9952 C   0  0  0  0  0  0
   13.9456   -0.2135   52.9313 O   0  0  0  0  0  0
   12.6013    0.6383   53.3260 P   0  0  2  0  0  0
   11.3202   -0.5120   53.3166 N   0  0  0  0  0  0
   12.3403    1.5591   51.9105 N   0  0  0  0  0  0
   12.6910    1.4355   54.5814 O   0  0  0  0  0  0
   11.4197   -1.6871   54.2179 C   0  0  0  0  0  0
    9.9306    0.0241   53.2219 C   0  0  0  0  0  0
    9.5438    1.0731   54.3182 C   0  0  0  0  0  0
    9.5506    0.3852   55.9760 Cl  0  0  0  0  0  0
   12.4761   -2.7366   53.7838 C   0  0  0  0  0  0
   12.1277   -3.3886   52.1511 Cl  0  0  0  0  0  0
   18.3077   -0.6524   52.6110 H   0  0  0  0  0  0
   19.3077   -1.9722   54.3791 H   0  0  0  0  0  0
   22.0719    1.3741   51.9499 H   0  0  0  0  0  0
   23.5202   -2.3866   56.1769 H   0  0  0  0  0  0
   23.8179    1.6318   52.8273 H   0  0  0  0  0  0
   26.0767   -1.1759   53.2810 H   0  0  0  0  0  0
   29.5804    1.3454   53.4846 H   0  0  0  0  0  0
   28.1167    3.3576   53.4553 H   0  0  0  0  0  0
   25.6624    3.1278   53.3636 H   0  0  0  0  0  0
   29.8865   -3.2250   53.3615 H   0  0  0  0  0  0
   18.1818    1.5226   49.6659 H   0  0  0  0  0  0
   18.2787   -0.0681   50.3395 H   0  0  0  0  0  0
   17.5501    1.4912   52.5732 H   0  0  0  0  0  0
   16.7587    2.3348   51.3132 H   0  0  0  0  0  0
   15.2836    0.5426   50.8337 H   0  0  0  0  0  0
   16.3187   -0.6898   51.4952 H   0  0  0  0  0  0
   15.8090   -0.0807   53.7782 H   0  0  0  0  0  0
   15.0916    1.4434   53.2909 H   0  0  0  0  0  0
   12.1140    1.0411   51.0609 H   0  0  0  0  0  0
   11.7050    2.3575   52.0089 H   0  0  0  0  0  0
   11.6563   -1.3543   55.2276 H   0  0  0  0  0  0
   10.4551   -2.1893   54.2972 H   0  0  0  0  0  0
    9.8000    0.4937   52.2477 H   0  0  0  0  0  0
    9.2014   -0.7877   53.2328 H   0  0  0  0  0  0
   10.2036    1.9400   54.3135 H   0  0  0  0  0  0
    8.5425    1.4766   54.1584 H   0  0  0  0  0  0
   13.4941   -2.3522   53.7798 H   0  0  0  0  0  0
   12.4676   -3.5774   54.4778 H   0  0  0  0  0  0
  1  2  2  0  0  0
  1  4  1  0  0  0
  1 11  1  0  0  0
  2  3  1  0  0  0
  2 36  1  0  0  0
  3  6  2  0  0  0
  3 37  1  0  0  0
  4  5  2  0  0  0
  4 38  1  0  0  0
  5  6  1  0  0  0
  5 10  1  0  0  0
  6  7  1  0  0  0
  7  8  2  0  0  0
  8  9  1  0  0  0
  8 39  1  0  0  0
  9 10  2  0  0  0
 10 12  1  0  0  0
 11 21  1  0  0  0
 12 13  1  0  0  0
 12 40  1  0  0  0
 13 14  2  0  0  0
 13 18  1  0  0  0
 14 15  1  0  0  0
 14 41  1  0  0  0
 15 16  2  0  0  0
 15 19  1  0  0  0
 16 17  1  0  0  0
 16 42  1  0  0  0
 17 18  2  0  0  0
 17 43  1  0  0  0
 18 44  1  0  0  0
 19 20  3  0  0  0
 20 45  1  0  0  0
 21 22  1  0  0  0
 21 46  1  0  0  0
 21 47  1  0  0  0
 22 23  1  0  0  0
 22 48  1  0  0  0
 22 49  1  0  0  0
 23 24  1  0  0  0
 23 50  1  0  0  0
 23 51  1  0  0  0
 24 25  1  0  0  0
 24 52  1  0  0  0
 24 53  1  0  0  0
 25 26  1  0  0  0
 26 27  1  0  0  0
 26 28  1  0  0  0
 26 29  2  0  0  0
 27 30  1  0  0  0
 27 31  1  0  0  0
 28 54  1  0  0  0
 28 55  1  0  0  0
 30 34  1  0  0  0
 30 56  1  0  0  0
 30 57  1  0  0  0
 31 32  1  0  0  0
 31 58  1  0  0  0
 31 59  1  0  0  0
 32 33  1  0  0  0
 32 60  1  0  0  0
 32 61  1  0  0  0
 34 35  1  0  0  0
 34 62  1  0  0  0
 34 63  1  0  0  0
M  END
> <s_m_entry_id>
329

> <s_m_entry_name>
pocket_pv.140

> <s_m_Source_Path>
/home/bortolaa/Project/GT/mario-master/docking/set505protein_struct_1_site_1_set505ligs_train

> <s_m_Source_File>
pocket_pv.maegz

> <i_m_Source_File_Index>
140

> <From>
www.bindingDB.org

> <BindingDB Reactant_set_id>
50679584

> <Ligand InChI>
InChI=1S/C24H28Cl2N5O3P/c1-2-19-6-5-7-20(16-19)30-24-22-17-21(8-9-23(22)28-18-29-24)33-14-3-4-15-34-35(27,32)31(12-10-25)13-11-26/h1,5-9,16-18H,3-4,10-15H2,(H2,27,32)(H,28,29,30)

> <Ligand InChI Key>
NWQZWJNXAGKRAC-UHFFFAOYSA-N

> <BindingDB MonomerID>
50230422

> <BindingDB Ligand Name>
CHEMBL4091626

> <Target Name Assigned by Curator or DataSource>
Epidermal growth factor receptor

> <Target Source Organism According to Curator or DataSource>
Homo sapiens

> <Ki (nM)>


> <Kd (nM)>


> <EC50 (nM)>


> <kon (M-1-s-1)>


> <koff (s-1)>


> <pH>


> <Temp C>


> <Curation/DataSource>
ChEMBL

> <Article DOI>
10.1016/j.ejmech.2016.12.055

> <PubChem AID>


> <Patent Number>


> <Authors>
Lin, S; Li, Y; Zheng, Y; Luo, L; Sun, Q; Ge, Z; Cheng, T; Li, R

> <Institution>
Peking University

> <Link to Ligand in BindingDB>
http://www.bindingdb.org/bind/chemsearch/marvin/MolStructure.jsp?monomerid=50230422

> <Link to Ligand-Target Pair in BindingDB>
http://www.bindingdb.org/jsp/dbsearch/PrimarySearch_ki.jsp?energyterm=kJ/mole&tag=r21&monomerid=50230422&enzyme=Epidermal+growth+factor+receptor&column=ki&startPg=0&Increment=50&submit=Search

> <Ligand HET ID in PDB>


> <PDB ID(s) for Ligand-Target Complex>


> <PubChem CID>
137653430

> <PubChem SID>
383543110

> <ChEBI ID of Ligand>


> <ChEMBL ID of Ligand>
CHEMBL4091626

> <DrugBank ID of Ligand>


> <IUPHAR_GRAC ID of Ligand>


> <KEGG ID of Ligand>


> <ZINC ID of Ligand>


> <Number of Protein Chains in Target (>
1

> <BindingDB Target Chain Sequence>
MRPSGTAGAALLALLAALCPASRALEEKKVCQGTSNKLTQLGTFEDHFLSLQRMFNNCEVVLGNLEITYVQRNYDLSFLKTIQEVAGYVLIALNTVERIPLENLQIIRGNMYYENSYALAVLSNYDANKTGLKELPMRNLQEILHGAVRFSNNPALCNVESIQWRDIVSSDFLSNMSMDFQNHLGSCQKCDPSCPNGSCWGAGEENCQKLTKIICAQQCSGRCRGKSPSDCCHNQCAAGCTGPRESDCLVCRKFRDEATCKDTCPPLMLYNPTTYQMDVNPEGKYSFGATCVKKCPRNYVVTDHGSCVRACGADSYEMEEDGVRKCKKCEGPCRKVCNGIGIGEFKDSLSINATNIKHFKNCTSISGDLHILPVAFRGDSFTHTPPLDPQELDILKTVKEITGFLLIQAWPENRTDLHAFENLEIIRGRTKQHGQFSLAVVSLNITSLGLRSLKEISDGDVIISGNKNLCYANTINWKKLFGTSGQKTKIISNRGENSCKATGQVCHALCSPEGCWGPEPRDCVSCRNVSRGRECVDKCNLLEGEPREFVENSECIQCHPECLPQAMNITCTGRGPDNCIQCAHYIDGPHCVKTCPAGVMGENNTLVWKYADAGHVCHLCHPNCTYGCTGPGLEGCPTNGPKIPSIATGMVGALLLLLVVALGIGLFMRRRHIVRKRTLRRLLQERELVEPLTPSGEAPNQALLRILKETEFKKIKVLGSGAFGTVYKGLWIPEGEKVKIPVAIKELREATSPKANKEILDEAYVMASVDNPHVCRLLGICLTSTVQLITQLMPFGCLLDYVREHKDNIGSQYLLNWCVQIAKGMNYLEDRRLVHRDLAARNVLVKTPQHVKITDFGLAKLLGAEEKEYHAEGGKVPIKWMALESILHRIYTHQSDVWSYGVTVWELMTFGSKPYDGIPASEISSILEKGERLPQPPICTIDVYMIMVKCWMIDADSRPKFRELIIEFSKMARDPQRYLVIQGDERMHLPSPTDSNFYRALMDEEDMDDVVDADEYLIPQQGFFSSPSTSRTPLLSSLSATSNNSTVACIDRNGLQSCPIKEDSFLQRYSSDPTGALTEDSIDDTFLPVPEYINQSVPKRPAGSVQNPVYHNQPLNPAPSRDPHYQDPHSTAVGNPEYLNTVQPTCVNSTFDSPAHWAQKGSHQISLDNPDYQQDFFPKEAKPNGIFKGSTAENAEYLRVAPQSSEFIGA

> <PDB ID(s) of Target Chain>
1IVO,1M14,1M17,1MOX,1XKK,1Z9I,2GS2,2GS6,2ITW,2ITX,2ITY,2J5E,2J5F,2J6M,2RF9,2RGP,3B2V,3BEL,3GOP,3POZ,3QWQ,3VJO,3W2O,3W2P,3W2Q,3W2R,3W2S,3W32,3W33,4G5J,4I23,4JQ7,4JQ8,4JR3,4JRV,4KRO,4LI5,4RJ4,4RJ5,4RJ6,4RJ7,4RJ8,4TKS,4UIP,4UV7,4WKQ,4WRG,4ZAU,5C8K,5C8M,5C8N,5CAL,5CAN,5CAO,5CAP,5CAQ,5CAS,5CAU,5CAV,5EDP,5EDQ,5EDR,5EM5,5EM6,5EM7,5EM8,5FED,5GNK,5HCX,5HCY,5HCZ,5HIB,5HIC,5UGB,5WB7,5WB8,5Y25,6S89,6S8A

> <UniProt (SwissProt) Recommended Name of Target Chain>
Epidermal growth factor receptor

> <UniProt (SwissProt) Entry Name of Target Chain>
EGFR_HUMAN

> <UniProt (SwissProt) Primary ID of Target Chain>
P00533

> <UniProt (SwissProt) Secondary ID(s) of Target Chain>
O00688,O00732,P06268,Q14225,Q68GS5,Q92795,Q9BZS2,Q9GZX1,Q9H2C9,Q9H3C9,Q9UMD7,Q9UMD8,Q9UMG5

> <UniProt (SwissProt) Alternative ID(s) of Target Chain>


> <UniProt (TrEMBL) Submitted Name of Target Chain>


> <UniProt (TrEMBL) Entry Name of Target Chain>


> <UniProt (TrEMBL) Primary ID of Target Chain>


> <UniProt (TrEMBL) Secondary ID(s) of Target Chain>


> <UniProt (TrEMBL) Alternative ID(s) of Target Chain>


> <training label>
7.95861

> <i_lp_mmshare_version>
54117

> <s_epik_input>
Q2xbQ0gyXVtDSDJdTihbQ0gyXVtDSDJdQ2wpW1BAXSg9TykoW05IMl0pT1tDSDJdW0NIMl1bQ0gyXVtDSDJdT2MoW2NIXTEpW2NIXVtjSF1jKGMxMiluW2NIXW5jMltOSF1jM1tjSF1jKEMjW0NIXSlbY0hdW2NIXVtjSF0z

> <s_epik_cmdline>
J2VwaWtfcHl0aG9uJywgJy1waHQnLCAnMC4xJywgJy1waCcsICc3LjQnLCAnLXRuJywgJzgnLCAnLW1hJywgJzIwMCcsICctaW1hZScsICc8aW5maWxlLm1hZT4nLCAnLW9tYWUnLCAnPG91dGZpbGUubWFlPic=

> <r_lp_tautomer_probability>
1

> <r_epik_Ionization_Penalty>
  0.0004

> <r_epik_Ionization_Penalty_Charging>
  0.0000

> <r_epik_Ionization_Penalty_Neutral>
  0.0004

> <r_epik_State_Penalty>
  0.0000

> <r_epik_Charging_Adjusted_Penalty>
0

> <i_epik_Tot_Q>
0

> <i_epik_Tot_abs_Q>
0

> <i_f3d_flags>
0

> <s_lp_Force_Field>
OPLS_2005

> <r_lp_Energy>
1.077285

> <b_lp_Chiralities_Consistent>
1

> <s_lp_Variant>
/home/bortolaa/Project/GT/mario-master/ligands/set505ligs_train.sdf:203-1

> <s_i_glide_gridfile>
struct_1_site_1

> <i_i_glide_lignum>
227

> <i_i_glide_rotatable_bonds>
15

> <r_i_docking_score>
-7.39005463403032

> <r_i_glide_ligand_efficiency>
-0.211144418115152

> <r_i_glide_ligand_efficiency_sa>
-0.690667391862326

> <r_i_glide_ligand_efficiency_ln>
-1.62228100559545

> <r_i_glide_gscore>
-7.39005463403032

> <r_i_glide_lipo>
-3.23893295949616

> <r_i_glide_hbond>
-0.32

> <r_i_glide_metal>
0

> <r_i_glide_rewards>
-1.15096052124666

> <r_i_glide_evdw>
-48.8033905029297

> <r_i_glide_ecoul>
-7.67673110961914

> <r_i_glide_erotb>
0.933051138628063

> <r_i_glide_esite>
-0.0215331003262079

> <r_i_glide_emodel>
-51.1364191834701

> <r_i_glide_energy>
-56.4801216125488

> <r_i_glide_einternal>
15.2925415039062

> <i_i_glide_confnum>
645

> <i_i_glide_posenum>
39

> <r_i_glide_eff_state_penalty>
0

> <IC50 (nM)>
11

> <PMID>
28092860

> <r_glide_shape_similarity>
0.734775900840759

> <s_m_subgroup_title>
505 training

> <s_m_subgroupid>
pocket_pv

> <b_m_subgroup_collapsed>
0

$$$$
/home/bortolaa/Project/GT/mario-master/ligands/set505ligs_train.sdf:223
                    3D
 Schrodinger Suite 2021-2.
 65 68  0  0  1  0            999 V2000
   20.2859    1.5341   49.8697 C   0  0  0  0  0  0
   19.5576    2.4749   49.0246 C   0  0  0  0  0  0
   18.2273    2.6793   49.1223 C   0  0  0  0  0  0
   17.4781    3.7689   48.3704 C   0  0  0  0  0  0
   21.3728    1.0485   49.5494 O   0  0  0  0  0  0
   19.6682    1.2691   51.0465 N   0  0  0  0  0  0
   21.7981   -1.9056   55.1472 N   0  0  0  0  0  0
   23.0979   -1.7514   55.4175 C   0  0  0  0  0  0
   23.9426   -0.9068   54.8325 N   0  0  0  0  0  0
   23.4411   -0.1011   53.8722 C   0  0  0  0  0  0
   22.0741   -0.1730   53.5092 C   0  0  0  0  0  0
   21.5312    0.6408   52.4995 C   0  0  0  0  0  0
   20.1841    0.4982   52.1193 C   0  0  0  0  0  0
   19.3292   -0.3892   52.8139 C   0  0  0  0  0  0
   19.8801   -1.1972   53.8462 C   0  0  0  0  0  0
   21.2574   -1.1166   54.1880 C   0  0  0  0  0  0
   18.0236   -0.4285   52.3540 O   0  0  0  0  0  0
   14.3794   -0.5388   53.0842 C   0  0  0  0  0  0
   15.7313   -0.0065   52.5850 C   0  0  0  0  0  0
   16.9154   -0.8148   53.1696 C   0  0  0  0  0  0
   16.6656   -2.3540   53.1015 C   0  0  0  0  0  0
   15.1822   -2.8462   53.1319 C   0  0  0  0  0  0
   14.2385   -1.8862   52.6126 O   0  0  0  0  0  0
   24.2872    0.8527   53.2780 N   0  0  0  0  0  0
   25.6831    0.9527   53.3419 C   0  0  0  0  0  0
   26.5128   -0.1908   53.3329 C   0  0  0  0  0  0
   27.9162   -0.0522   53.3821 C   0  0  0  0  0  0
   28.5025    1.2297   53.4401 C   0  0  0  0  0  0
   27.6765    2.3714   53.4269 C   0  0  0  0  0  0
   26.2742    2.2360   53.3723 C   0  0  0  0  0  0
   28.7432   -1.2451   53.3686 C   0  0  0  0  0  0
   29.3738   -2.2903   53.3624 C   0  0  0  0  0  0
   17.2259    4.9491   49.2584 N   0  3  0  0  0  0
   16.3389    4.6337   50.4154 C   0  0  0  0  0  0
   18.4862    5.6473   49.6662 C   0  0  0  0  0  0
   20.1279    3.0582   48.3154 H   0  0  0  0  0  0
   17.6157    2.0888   49.7904 H   0  0  0  0  0  0
   18.0541    4.0908   47.5019 H   0  0  0  0  0  0
   16.5374    3.3648   47.9930 H   0  0  0  0  0  0
   18.7076    1.5625   51.1485 H   0  0  0  0  0  0
   23.5132   -2.4000   56.1742 H   0  0  0  0  0  0
   22.1533    1.3487   51.9716 H   0  0  0  0  0  0
   19.2600   -1.8967   54.3829 H   0  0  0  0  0  0
   14.2930   -0.4689   54.1704 H   0  0  0  0  0  0
   13.5694    0.0593   52.6664 H   0  0  0  0  0  0
   15.8374    1.0495   52.8302 H   0  0  0  0  0  0
   15.7441   -0.0742   51.4962 H   0  0  0  0  0  0
   17.0709   -0.5139   54.2032 H   0  0  0  0  0  0
   17.0781   -2.7170   52.1783 H   0  0  0  0  0  0
   17.2396   -2.8656   53.8731 H   0  0  0  0  0  0
   14.8893   -3.2660   54.1041 H   0  0  0  0  0  0
   15.1106   -3.7185   52.4796 H   0  0  0  0  0  0
   23.8209    1.6275   52.8307 H   0  0  0  0  0  0
   26.0759   -1.1778   53.2798 H   0  0  0  0  0  0
   29.5782    1.3414   53.4844 H   0  0  0  0  0  0
   28.1163    3.3584   53.4576 H   0  0  0  0  0  0
   25.6627    3.1287   53.3706 H   0  0  0  0  0  0
   29.8897   -3.2241   53.3676 H   0  0  0  0  0  0
   16.8096    3.9403   51.1116 H   0  0  0  0  0  0
   16.0896    5.5330   50.9744 H   0  0  0  0  0  0
   15.4033    4.1938   50.0683 H   0  0  0  0  0  0
   19.0804    5.0349   50.3450 H   0  0  0  0  0  0
   19.0974    5.8758   48.7920 H   0  0  0  0  0  0
   18.2889    6.5921   50.1700 H   0  0  0  0  0  0
   16.7096    5.6351   48.7110 H   0  0  0  0  0  0
  1  2  1  0  0  0
  1  5  2  0  0  0
  1  6  1  0  0  0
  2  3  2  0  0  0
  2 36  1  0  0  0
  3  4  1  0  0  0
  3 37  1  0  0  0
  4 33  1  0  0  0
  4 38  1  0  0  0
  4 39  1  0  0  0
  6 13  1  0  0  0
  6 40  1  0  0  0
  7  8  1  0  0  0
  7 16  2  0  0  0
  8  9  2  0  0  0
  8 41  1  0  0  0
  9 10  1  0  0  0
 10 11  2  0  0  0
 10 24  1  0  0  0
 11 12  1  0  0  0
 11 16  1  0  0  0
 12 13  2  0  0  0
 12 42  1  0  0  0
 13 14  1  0  0  0
 14 15  2  0  0  0
 14 17  1  0  0  0
 15 16  1  0  0  0
 15 43  1  0  0  0
 17 20  1  0  0  0
 18 19  1  0  0  0
 18 23  1  0  0  0
 18 44  1  0  0  0
 18 45  1  0  0  0
 19 20  1  0  0  0
 19 46  1  0  0  0
 19 47  1  0  0  0
 20 21  1  0  0  0
 20 48  1  0  0  0
 21 22  1  0  0  0
 21 49  1  0  0  0
 21 50  1  0  0  0
 22 23  1  0  0  0
 22 51  1  0  0  0
 22 52  1  0  0  0
 24 25  1  0  0  0
 24 53  1  0  0  0
 25 26  1  0  0  0
 25 30  2  0  0  0
 26 27  2  0  0  0
 26 54  1  0  0  0
 27 28  1  0  0  0
 27 31  1  0  0  0
 28 29  2  0  0  0
 28 55  1  0  0  0
 29 30  1  0  0  0
 29 56  1  0  0  0
 30 57  1  0  0  0
 31 32  3  0  0  0
 32 58  1  0  0  0
 33 34  1  0  0  0
 33 35  1  0  0  0
 33 65  1  0  0  0
 34 59  1  0  0  0
 34 60  1  0  0  0
 34 61  1  0  0  0
 35 62  1  0  0  0
 35 63  1  0  0  0
 35 64  1  0  0  0
M  CHG  1  33   1
M  END
> <s_m_entry_id>
330

> <s_m_entry_name>
pocket_pv.141

> <s_m_Source_Path>
/home/bortolaa/Project/GT/mario-master/docking/set505protein_struct_1_site_1_set505ligs_train

> <s_m_Source_File>
pocket_pv.maegz

> <i_m_Source_File_Index>
141

> <From>
www.bindingDB.org

> <BindingDB Reactant_set_id>
50419163

> <Ligand InChI>
InChI=1S/C27H29N5O3/c1-4-19-7-5-8-20(15-19)30-27-22-16-24(31-26(33)9-6-12-32(2)3)25(17-23(22)28-18-29-27)35-21-10-13-34-14-11-21/h1,5-9,15-18,21H,10-14H2,2-3H3,(H,31,33)(H,28,29,30)/b9-6+

> <Ligand InChI Key>
WRUAWDJRNXGHMT-RMKNXTFCSA-N

> <BindingDB MonomerID>
50123187

> <BindingDB Ligand Name>
CHEMBL3622648

> <Target Name Assigned by Curator or DataSource>
Epidermal growth factor receptor

> <Target Source Organism According to Curator or DataSource>
Homo sapiens

> <Ki (nM)>


> <Kd (nM)>


> <EC50 (nM)>


> <kon (M-1-s-1)>


> <koff (s-1)>


> <pH>


> <Temp C>


> <Curation/DataSource>
ChEMBL

> <Article DOI>
10.1016/j.ejmech.2015.08.026

> <PubChem AID>


> <Patent Number>


> <Authors>
Zhang, L; Yang, Y; Zhou, H; Zheng, Q; Li, Y; Zheng, S; Zhao, S; Chen, D; Fan, C

> <Institution>
Qilu Pharmaceutical Co, Ltd

> <Link to Ligand in BindingDB>
http://www.bindingdb.org/bind/chemsearch/marvin/MolStructure.jsp?monomerid=50123187

> <Link to Ligand-Target Pair in BindingDB>
http://www.bindingdb.org/jsp/dbsearch/PrimarySearch_ki.jsp?energyterm=kJ/mole&tag=r21&monomerid=50123187&enzyme=Epidermal+growth+factor+receptor&column=ki&startPg=0&Increment=50&submit=Search

> <Ligand HET ID in PDB>


> <PDB ID(s) for Ligand-Target Complex>


> <PubChem CID>
72195043

> <PubChem SID>
321901920

> <ChEBI ID of Ligand>


> <ChEMBL ID of Ligand>
CHEMBL3622648

> <DrugBank ID of Ligand>


> <IUPHAR_GRAC ID of Ligand>


> <KEGG ID of Ligand>


> <ZINC ID of Ligand>


> <Number of Protein Chains in Target (>
1

> <BindingDB Target Chain Sequence>
MRPSGTAGAALLALLAALCPASRALEEKKVCQGTSNKLTQLGTFEDHFLSLQRMFNNCEVVLGNLEITYVQRNYDLSFLKTIQEVAGYVLIALNTVERIPLENLQIIRGNMYYENSYALAVLSNYDANKTGLKELPMRNLQEILHGAVRFSNNPALCNVESIQWRDIVSSDFLSNMSMDFQNHLGSCQKCDPSCPNGSCWGAGEENCQKLTKIICAQQCSGRCRGKSPSDCCHNQCAAGCTGPRESDCLVCRKFRDEATCKDTCPPLMLYNPTTYQMDVNPEGKYSFGATCVKKCPRNYVVTDHGSCVRACGADSYEMEEDGVRKCKKCEGPCRKVCNGIGIGEFKDSLSINATNIKHFKNCTSISGDLHILPVAFRGDSFTHTPPLDPQELDILKTVKEITGFLLIQAWPENRTDLHAFENLEIIRGRTKQHGQFSLAVVSLNITSLGLRSLKEISDGDVIISGNKNLCYANTINWKKLFGTSGQKTKIISNRGENSCKATGQVCHALCSPEGCWGPEPRDCVSCRNVSRGRECVDKCNLLEGEPREFVENSECIQCHPECLPQAMNITCTGRGPDNCIQCAHYIDGPHCVKTCPAGVMGENNTLVWKYADAGHVCHLCHPNCTYGCTGPGLEGCPTNGPKIPSIATGMVGALLLLLVVALGIGLFMRRRHIVRKRTLRRLLQERELVEPLTPSGEAPNQALLRILKETEFKKIKVLGSGAFGTVYKGLWIPEGEKVKIPVAIKELREATSPKANKEILDEAYVMASVDNPHVCRLLGICLTSTVQLITQLMPFGCLLDYVREHKDNIGSQYLLNWCVQIAKGMNYLEDRRLVHRDLAARNVLVKTPQHVKITDFGLAKLLGAEEKEYHAEGGKVPIKWMALESILHRIYTHQSDVWSYGVTVWELMTFGSKPYDGIPASEISSILEKGERLPQPPICTIDVYMIMVKCWMIDADSRPKFRELIIEFSKMARDPQRYLVIQGDERMHLPSPTDSNFYRALMDEEDMDDVVDADEYLIPQQGFFSSPSTSRTPLLSSLSATSNNSTVACIDRNGLQSCPIKEDSFLQRYSSDPTGALTEDSIDDTFLPVPEYINQSVPKRPAGSVQNPVYHNQPLNPAPSRDPHYQDPHSTAVGNPEYLNTVQPTCVNSTFDSPAHWAQKGSHQISLDNPDYQQDFFPKEAKPNGIFKGSTAENAEYLRVAPQSSEFIGA

> <PDB ID(s) of Target Chain>
1IVO,1M14,1M17,1MOX,1XKK,1Z9I,2GS2,2GS6,2ITW,2ITX,2ITY,2J5E,2J5F,2J6M,2RF9,2RGP,3B2V,3BEL,3GOP,3POZ,3QWQ,3VJO,3W2O,3W2P,3W2Q,3W2R,3W2S,3W32,3W33,4G5J,4I23,4JQ7,4JQ8,4JR3,4JRV,4KRO,4LI5,4RJ4,4RJ5,4RJ6,4RJ7,4RJ8,4TKS,4UIP,4UV7,4WKQ,4WRG,4ZAU,5C8K,5C8M,5C8N,5CAL,5CAN,5CAO,5CAP,5CAQ,5CAS,5CAU,5CAV,5EDP,5EDQ,5EDR,5EM5,5EM6,5EM7,5EM8,5FED,5GNK,5HCX,5HCY,5HCZ,5HIB,5HIC,5UGB,5WB7,5WB8,5Y25,6S89,6S8A

> <UniProt (SwissProt) Recommended Name of Target Chain>
Epidermal growth factor receptor

> <UniProt (SwissProt) Entry Name of Target Chain>
EGFR_HUMAN

> <UniProt (SwissProt) Primary ID of Target Chain>
P00533

> <UniProt (SwissProt) Secondary ID(s) of Target Chain>
O00688,O00732,P06268,Q14225,Q68GS5,Q92795,Q9BZS2,Q9GZX1,Q9H2C9,Q9H3C9,Q9UMD7,Q9UMD8,Q9UMG5

> <UniProt (SwissProt) Alternative ID(s) of Target Chain>


> <UniProt (TrEMBL) Submitted Name of Target Chain>


> <UniProt (TrEMBL) Entry Name of Target Chain>


> <UniProt (TrEMBL) Primary ID of Target Chain>


> <UniProt (TrEMBL) Secondary ID(s) of Target Chain>


> <UniProt (TrEMBL) Alternative ID(s) of Target Chain>


> <training label>
8.22185

> <i_lp_mmshare_version>
54117

> <s_epik_input>
W0NIM11OKFtDSDNdKVtDSDJdXFtDSF09W0NIXVxDKD1PKVtOSF1jKFtjSF0xKWMoT1tDSF0yW0NIMl1bQ0gyXU9bQ0gyXVtDSDJdMilbY0hdYyhjMTMpbltjSF1uYzNbTkhdYzRbY0hdYyhDI1tDSF0pW2NIXVtjSF1bY0hdNA==

> <s_epik_cmdline>
J2VwaWtfcHl0aG9uJywgJy1waHQnLCAnMC4xJywgJy1waCcsICc3LjQnLCAnLXRuJywgJzgnLCAnLW1hJywgJzIwMCcsICctaW1hZScsICc8aW5maWxlLm1hZT4nLCAnLW9tYWUnLCAnPG91dGZpbGUubWFlPic=

> <r_lp_tautomer_probability>
0.999978000241998

> <r_epik_Ionization_Penalty>
  0.3501

> <r_epik_Ionization_Penalty_Charging>
  0.3497

> <r_epik_Ionization_Penalty_Neutral>
  0.0004

> <r_epik_State_Penalty>
  0.3458

> <r_epik_Charging_Adjusted_Penalty>
0.695490871392805

> <i_epik_Tot_Q>
1

> <i_epik_Tot_abs_Q>
1

> <i_f3d_flags>
0

> <s_lp_Force_Field>
OPLS_2005

> <r_lp_Energy>
32.258387

> <b_lp_Chiralities_Consistent>
1

> <s_lp_Variant>
/home/bortolaa/Project/GT/mario-master/ligands/set505ligs_train.sdf:223-1

> <s_i_glide_gridfile>
struct_1_site_1

> <i_i_glide_lignum>
249

> <i_i_glide_rotatable_bonds>
10

> <r_i_docking_score>
-7.38918676794614

> <r_i_glide_ligand_efficiency>
-0.211119621941318

> <r_i_glide_ligand_efficiency_sa>
-0.690586281933573

> <r_i_glide_ligand_efficiency_ln>
-1.62209048972872

> <r_i_glide_gscore>
-7.73498676794614

> <r_i_glide_lipo>
-3.23596223009162

> <r_i_glide_hbond>
-0.32

> <r_i_glide_metal>
0

> <r_i_glide_rewards>
-1.50079051318886

> <r_i_glide_evdw>
-44.9759178161621

> <r_i_glide_ecoul>
-7.79445219039917

> <r_i_glide_erotb>
0.814953153839726

> <r_i_glide_esite>
-0.0752234591373993

> <r_i_glide_emodel>
-57.0072929617875

> <r_i_glide_energy>
-52.7703700065613

> <r_i_glide_einternal>
13.6991691589355

> <i_i_glide_confnum>
143

> <i_i_glide_posenum>
31

> <r_i_glide_eff_state_penalty>
0.3458

> <IC50 (nM)>
6

> <PMID>
26310890

> <r_glide_shape_similarity>
0.790603339672089

> <s_m_subgroup_title>
505 training

> <s_m_subgroupid>
pocket_pv

> <b_m_subgroup_collapsed>
0

$$$$
4-Anilinoquinazoline
                    3D
 Schrodinger Suite 2021-2.
 55 58  0  0  1  0            999 V2000
   23.4554   -0.0984   53.8723 C   0  0  0  0  0  0
   23.0933   -1.7492   55.4204 C   0  0  0  0  0  0
   21.2649   -1.1046   54.1832 C   0  0  0  0  0  0
   22.0835   -0.1553   53.5030 C   0  0  0  0  0  0
   21.5393    0.6684   52.4903 C   0  0  0  0  0  0
   20.1868    0.5321   52.1029 C   0  0  0  0  0  0
   19.3709   -0.4117   52.7628 C   0  0  0  0  0  0
   19.8992   -1.2031   53.8190 C   0  0  0  0  0  0
   23.9406   -0.9039   54.8410 N   0  0  0  0  0  0
   21.7963   -1.8984   55.1437 N   0  0  0  0  0  0
   25.7764    0.7172   53.2920 C   0  0  0  0  0  0
   27.8510   -0.6144   53.2925 C   0  0  0  0  0  0
   26.4590   -0.5242   53.1531 C   0  0  0  0  0  0
   26.5517    1.8933   53.4552 C   0  0  0  0  0  0
   28.5980    0.5441   53.5297 C   0  0  0  0  0  0
   25.8004   -1.6651   52.8633 F   0  0  0  0  0  0
   24.3637    0.7938   53.2618 N   0  0  0  0  0  0
   23.9731    1.6644   52.9291 H   0  0  0  0  0  0
   18.1178   -0.5675   52.2180 O   0  0  0  0  0  0
   19.6127    1.2764   51.0871 O   0  0  0  0  0  0
   20.4266    1.6420   49.9793 C   0  0  0  0  0  0
   17.0304   -0.9332   53.0422 C   0  0  0  0  0  0
   15.7414   -0.4704   52.3104 C   0  0  1  0  0  0
   14.5127   -0.6111   53.2419 C   0  0  0  0  0  0
   13.2252    0.0215   52.6905 C   0  0  0  0  0  0
   14.5239    1.5775   51.2988 C   0  0  0  0  0  0
   15.8664    0.9837   51.7886 C   0  0  0  0  0  0
   13.4554    1.4516   52.3380 N   0  3  1  0  0  0
   12.1981    2.1657   51.9652 C   0  0  0  0  0  0
   27.9631    1.8105   53.5742 C   0  0  0  0  0  0
   25.9296    3.0945   53.5388 F   0  0  0  0  0  0
   30.2881    0.3341   53.7740 Cl  0  0  0  0  0  0
   23.5025   -2.4029   56.1752 H   0  0  0  0  0  0
   22.1636    1.3915   51.9900 H   0  0  0  0  0  0
   19.2788   -1.9312   54.3181 H   0  0  0  0  0  0
   28.3408   -1.5748   53.2198 H   0  0  0  0  0  0
   19.7937    1.9905   49.1632 H   0  0  0  0  0  0
   21.1106    2.4492   50.2434 H   0  0  0  0  0  0
   21.0036    0.7936   49.6093 H   0  0  0  0  0  0
   17.1157   -0.4664   54.0241 H   0  0  0  0  0  0
   17.0211   -2.0135   53.1902 H   0  0  0  0  0  0
   15.5885   -1.1205   51.4480 H   0  0  0  0  0  0
   14.7400   -0.1350   54.1914 H   0  0  0  0  0  0
   14.3290   -1.6700   53.4195 H   0  0  0  0  0  0
   12.4352   -0.0521   53.4383 H   0  0  0  0  0  0
   12.8848   -0.5247   51.8100 H   0  0  0  0  0  0
   14.6643    2.6275   51.0412 H   0  0  0  0  0  0
   14.2014    1.0710   50.3889 H   0  0  0  0  0  0
   16.5931    1.0362   50.9786 H   0  0  0  0  0  0
   16.2659    1.6116   52.5744 H   0  0  0  0  0  0
   11.7529    1.7416   51.0645 H   0  0  0  0  0  0
   11.4636    2.1069   52.7692 H   0  0  0  0  0  0
   12.3952    3.2223   51.7786 H   0  0  0  0  0  0
   28.5452    2.7061   53.7388 H   0  0  0  0  0  0
   13.7983    1.9051   53.1807 H   0  0  0  0  0  0
  1  4  2  0  0  0
  1  9  1  0  0  0
  1 17  1  0  0  0
  2  9  2  0  0  0
  2 10  1  0  0  0
  2 33  1  0  0  0
  3  4  1  0  0  0
  3  8  1  0  0  0
  3 10  2  0  0  0
  4  5  1  0  0  0
  5  6  2  0  0  0
  5 34  1  0  0  0
  6  7  1  0  0  0
  6 20  1  0  0  0
  7  8  2  0  0  0
  7 19  1  0  0  0
  8 35  1  0  0  0
 11 13  2  0  0  0
 11 14  1  0  0  0
 11 17  1  0  0  0
 12 13  1  0  0  0
 12 15  2  0  0  0
 12 36  1  0  0  0
 13 16  1  0  0  0
 14 30  2  0  0  0
 14 31  1  0  0  0
 15 30  1  0  0  0
 15 32  1  0  0  0
 17 18  1  0  0  0
 19 22  1  0  0  0
 20 21  1  0  0  0
 21 37  1  0  0  0
 21 38  1  0  0  0
 21 39  1  0  0  0
 22 23  1  0  0  0
 22 40  1  0  0  0
 22 41  1  0  0  0
 23 24  1  0  0  0
 23 27  1  0  0  0
 23 42  1  0  0  0
 24 25  1  0  0  0
 24 43  1  0  0  0
 24 44  1  0  0  0
 25 28  1  0  0  0
 25 45  1  0  0  0
 25 46  1  0  0  0
 26 27  1  0  0  0
 26 28  1  0  0  0
 26 47  1  0  0  0
 26 48  1  0  0  0
 27 49  1  0  0  0
 27 50  1  0  0  0
 28 29  1  0  0  0
 28 55  1  0  0  0
 29 51  1  0  0  0
 29 52  1  0  0  0
 29 53  1  0  0  0
 30 54  1  0  0  0
M  CHG  1  28   1
M  END
> <s_m_entry_id>
331

> <s_m_entry_name>
pocket_pv.142

> <s_m_Source_Path>
/home/bortolaa/Project/GT/mario-master/docking/set505protein_struct_1_site_1_set505ligs_train

> <s_m_Source_File>
pocket_pv.maegz

> <i_m_Source_File_Index>
142

> <From>
www.bindingDB.org

> <BindingDB Reactant_set_id>
7085

> <Ligand InChI>
InChI=1S/C22H23ClF2N4O2/c1-29-5-3-13(4-6-29)11-31-20-10-18-15(9-19(20)30-2)22(27-12-26-18)28-21-16(24)7-14(23)8-17(21)25/h7-10,12-13H,3-6,11H2,1-2H3,(H,26,27,28)

> <Ligand InChI Key>
KQEHWOWUWGAOSR-UHFFFAOYSA-N

> <BindingDB MonomerID>
4672

> <BindingDB Ligand Name>
4-Anilinoquinazoline 19::N-(4-Chloro-2,6-difluorophenyl)-6-methoxy-7-[(1-methylpiperidin-4-yl)methoxy]quinazolin-4-amine

> <Target Name Assigned by Curator or DataSource>
Epidermal growth factor receptor

> <Target Source Organism According to Curator or DataSource>
Homo sapiens

> <Ki (nM)>


> <Kd (nM)>


> <EC50 (nM)>


> <kon (M-1-s-1)>


> <koff (s-1)>


> <pH>


> <Curation/DataSource>
Curated from the literature by BindingDB

> <Article DOI>
10.1021/jm011022e

> <PubChem AID>


> <Patent Number>


> <Authors>
Hennequin, LF; Stokes, ES; Thomas, AP; Johnstone, C; Ple, PA; Ogilvie, DJ; Dukes, M; Wedge, SR; Kendrew, J; Curwen, JO

> <Institution>
AstraZeneca

> <Link to Ligand in BindingDB>
http://www.bindingdb.org/bind/chemsearch/marvin/MolStructure.jsp?monomerid=4672

> <Link to Ligand-Target Pair in BindingDB>
http://www.bindingdb.org/jsp/dbsearch/PrimarySearch_ki.jsp?energyterm=kJ/mole&tag=r21&monomerid=4672&enzyme=Epidermal+growth+factor+receptor&column=ki&startPg=0&Increment=50&submit=Search

> <Ligand HET ID in PDB>


> <PDB ID(s) for Ligand-Target Complex>


> <PubChem CID>
5329045

> <PubChem SID>
8034329

> <ChEBI ID of Ligand>


> <ChEMBL ID of Ligand>


> <DrugBank ID of Ligand>


> <IUPHAR_GRAC ID of Ligand>


> <KEGG ID of Ligand>


> <ZINC ID of Ligand>
ZINC13472791

> <Number of Protein Chains in Target (>
1

> <BindingDB Target Chain Sequence>
MRPSGTAGAALLALLAALCPASRALEEKKVCQGTSNKLTQLGTFEDHFLSLQRMFNNCEVVLGNLEITYVQRNYDLSFLKTIQEVAGYVLIALNTVERIPLENLQIIRGNMYYENSYALAVLSNYDANKTGLKELPMRNLQEILHGAVRFSNNPALCNVESIQWRDIVSSDFLSNMSMDFQNHLGSCQKCDPSCPNGSCWGAGEENCQKLTKIICAQQCSGRCRGKSPSDCCHNQCAAGCTGPRESDCLVCRKFRDEATCKDTCPPLMLYNPTTYQMDVNPEGKYSFGATCVKKCPRNYVVTDHGSCVRACGADSYEMEEDGVRKCKKCEGPCRKVCNGIGIGEFKDSLSINATNIKHFKNCTSISGDLHILPVAFRGDSFTHTPPLDPQELDILKTVKEITGFLLIQAWPENRTDLHAFENLEIIRGRTKQHGQFSLAVVSLNITSLGLRSLKEISDGDVIISGNKNLCYANTINWKKLFGTSGQKTKIISNRGENSCKATGQVCHALCSPEGCWGPEPRDCVSCRNVSRGRECVDKCNLLEGEPREFVENSECIQCHPECLPQAMNITCTGRGPDNCIQCAHYIDGPHCVKTCPAGVMGENNTLVWKYADAGHVCHLCHPNCTYGCTGPGLEGCPTNGPKIPSIATGMVGALLLLLVVALGIGLFMRRRHIVRKRTLRRLLQERELVEPLTPSGEAPNQALLRILKETEFKKIKVLGSGAFGTVYKGLWIPEGEKVKIPVAIKELREATSPKANKEILDEAYVMASVDNPHVCRLLGICLTSTVQLITQLMPFGCLLDYVREHKDNIGSQYLLNWCVQIAKGMNYLEDRRLVHRDLAARNVLVKTPQHVKITDFGLAKLLGAEEKEYHAEGGKVPIKWMALESILHRIYTHQSDVWSYGVTVWELMTFGSKPYDGIPASEISSILEKGERLPQPPICTIDVYMIMVKCWMIDADSRPKFRELIIEFSKMARDPQRYLVIQGDERMHLPSPTDSNFYRALMDEEDMDDVVDADEYLIPQQGFFSSPSTSRTPLLSSLSATSNNSTVACIDRNGLQSCPIKEDSFLQRYSSDPTGALTEDSIDDTFLPVPEYINQSVPKRPAGSVQNPVYHNQPLNPAPSRDPHYQDPHSTAVGNPEYLNTVQPTCVNSTFDSPAHWAQKGSHQISLDNPDYQQDFFPKEAKPNGIFKGSTAENAEYLRVAPQSSEFIGA

> <PDB ID(s) of Target Chain>
1IVO,1M14,1M17,1MOX,1XKK,1Z9I,2GS2,2GS6,2ITW,2ITX,2ITY,2J5E,2J5F,2J6M,2RF9,2RGP,3B2V,3BEL,3GOP,3POZ,3QWQ,3VJO,3W2O,3W2P,3W2Q,3W2R,3W2S,3W32,3W33,4G5J,4I23,4JQ7,4JQ8,4JR3,4JRV,4KRO,4LI5,4RJ4,4RJ5,4RJ6,4RJ7,4RJ8,4TKS,4UIP,4UV7,4WKQ,4WRG,4ZAU,5C8K,5C8M,5C8N,5CAL,5CAN,5CAO,5CAP,5CAQ,5CAS,5CAU,5CAV,5EDP,5EDQ,5EDR,5EM5,5EM6,5EM7,5EM8,5FED,5GNK,5HCX,5HCY,5HCZ,5HIB,5HIC,5UGB,5WB7,5WB8,5Y25,6S89,6S8A

> <UniProt (SwissProt) Recommended Name of Target Chain>
Epidermal growth factor receptor

> <UniProt (SwissProt) Entry Name of Target Chain>
EGFR_HUMAN

> <UniProt (SwissProt) Primary ID of Target Chain>
P00533

> <UniProt (SwissProt) Secondary ID(s) of Target Chain>
O00688,O00732,P06268,Q14225,Q68GS5,Q92795,Q9BZS2,Q9GZX1,Q9H2C9,Q9H3C9,Q9UMD7,Q9UMD8,Q9UMG5

> <UniProt (SwissProt) Alternative ID(s) of Target Chain>


> <UniProt (TrEMBL) Submitted Name of Target Chain>


> <UniProt (TrEMBL) Entry Name of Target Chain>


> <UniProt (TrEMBL) Primary ID of Target Chain>


> <UniProt (TrEMBL) Secondary ID(s) of Target Chain>


> <UniProt (TrEMBL) Alternative ID(s) of Target Chain>


> <training label>
6.34679

> <i_lp_mmshare_version>
54117

> <s_epik_input>
RmMxW2NIXWMoQ2wpW2NIXWMoRiljMVtOSF1jKG5bY0hdbjIpYyhjMjMpW2NIXWMoT1tDSDNdKWMoW2NIXTMpT1tDSDJdW0NIXTRbQ0gyXVtDSDJdTihbQ0gzXSlbQ0gyXVtDSDJdNA==

> <s_epik_cmdline>
J2VwaWtfcHl0aG9uJywgJy1waHQnLCAnMC4xJywgJy1waCcsICc3LjQnLCAnLXRuJywgJzgnLCAnLW1hJywgJzIwMCcsICctaW1hZScsICc8aW5maWxlLm1hZT4nLCAnLW9tYWUnLCAnPG91dGZpbGUubWFlPic=

> <r_lp_tautomer_probability>
1

> <r_epik_Ionization_Penalty>
  0.0048

> <r_epik_Ionization_Penalty_Charging>
  0.0039

> <r_epik_Ionization_Penalty_Neutral>
  0.0009

> <r_epik_State_Penalty>
  0.0000

> <r_epik_Charging_Adjusted_Penalty>
0.0038691425947202

> <i_epik_Tot_Q>
1

> <i_epik_Tot_abs_Q>
1

> <i_f3d_flags>
0

> <s_lp_Force_Field>
OPLS_2005

> <r_lp_Energy>
31.357654

> <b_lp_Chiralities_Consistent>
1

> <s_lp_Variant>
4-Anilinoquinazoline-1

> <s_i_glide_gridfile>
struct_1_site_1

> <i_i_glide_lignum>
108

> <i_i_glide_rotatable_bonds>
6

> <r_i_docking_score>
-7.38774101183099

> <r_i_glide_ligand_efficiency>
-0.238314226188097

> <r_i_glide_ligand_efficiency_sa>
-0.748635698479977

> <r_i_glide_ligand_efficiency_ln>
-1.66616200523944

> <r_i_glide_gscore>
-7.38774101183099

> <r_i_glide_lipo>
-3.03181471558193

> <r_i_glide_hbond>
-0.32

> <r_i_glide_metal>
0

> <r_i_glide_rewards>
-1.72112432857071

> <r_i_glide_evdw>
-39.4174499511719

> <r_i_glide_ecoul>
-4.91488361358643

> <r_i_glide_erotb>
0.495147402289401

> <r_i_glide_esite>
-0.101844330371199

> <r_i_glide_emodel>
-44.6240601955492

> <r_i_glide_energy>
-44.3323335647583

> <r_i_glide_einternal>
5.22263431549072

> <i_i_glide_confnum>
111

> <i_i_glide_posenum>
130

> <r_i_glide_eff_state_penalty>
0

> <IC50 (nM)>
450

> <PMID>
11881999

> <Temp C>
25

> <r_glide_shape_similarity>
0.804222643375397

> <s_m_subgroup_title>
505 training

> <s_m_subgroupid>
pocket_pv

> <b_m_subgroup_collapsed>
0

$$$$
/home/bortolaa/Project/GT/mario-master/ligands/set505ligs_train.sdf:233
                    3D
 Schrodinger Suite 2021-2.
 57 60  0  0  1  0            999 V2000
   20.0568    1.7227   49.9623 C   0  0  0  0  0  0
   19.0344    2.4548   49.2262 C   0  0  0  0  0  0
   19.3700    3.3135   48.2490 C   0  0  0  0  0  0
   18.3574    4.1744   47.4994 C   0  0  0  0  0  0
   21.2092    1.5033   49.5853 O   0  0  0  0  0  0
   19.5533    1.3118   51.1381 N   0  0  0  0  0  0
   21.8006   -1.9056   55.1456 N   0  0  0  0  0  0
   23.0989   -1.7511   55.4195 C   0  0  0  0  0  0
   23.9410   -0.9055   54.8313 N   0  0  0  0  0  0
   23.4395   -0.0996   53.8702 C   0  0  0  0  0  0
   22.0724   -0.1693   53.5047 C   0  0  0  0  0  0
   21.5190    0.6537   52.4991 C   0  0  0  0  0  0
   20.1636    0.5195   52.1427 C   0  0  0  0  0  0
   19.3305   -0.3967   52.8210 C   0  0  0  0  0  0
   19.8873   -1.2150   53.8401 C   0  0  0  0  0  0
   21.2604   -1.1187   54.1854 C   0  0  0  0  0  0
   24.2872    0.8529   53.2779 N   0  0  0  0  0  0
   25.6825    0.9540   53.3433 C   0  0  0  0  0  0
   26.5108   -0.1914   53.3336 C   0  0  0  0  0  0
   27.9145   -0.0501   53.3787 C   0  0  0  0  0  0
   28.5028    1.2337   53.4317 C   0  0  0  0  0  0
   27.6769    2.3753   53.4152 C   0  0  0  0  0  0
   26.2750    2.2390   53.3716 C   0  0  0  0  0  0
   28.7426   -1.2403   53.3661 C   0  0  0  0  0  0
   29.3738   -2.2861   53.3675 C   0  0  0  0  0  0
   18.0158   -0.4417   52.3839 O   0  0  0  0  0  0
   16.9934   -0.8803   53.2610 C   0  0  0  0  0  0
   15.6517   -0.2950   52.7693 C   0  0  0  0  0  0
   18.6499    5.6093   47.6122 N   0  0  2  0  0  0
   18.6253    6.0780   49.0043 C   0  0  0  0  0  0
   19.9490    6.1370   49.7616 C   0  0  0  0  0  0
   19.2753    7.4172   49.3099 C   0  0  0  0  0  0
   17.9910    2.3230   49.4812 H   0  0  0  0  0  0
   20.4066    3.4462   47.9712 H   0  0  0  0  0  0
   18.3693    3.9012   46.4422 H   0  0  0  0  0  0
   17.3558    3.9836   47.8808 H   0  0  0  0  0  0
   18.5592    1.4529   51.2614 H   0  0  0  0  0  0
   23.5186   -2.4111   56.1672 H   0  0  0  0  0  0
   22.1258    1.3779   51.9799 H   0  0  0  0  0  0
   19.2677   -1.9331   54.3626 H   0  0  0  0  0  0
   23.8212    1.6265   52.8272 H   0  0  0  0  0  0
   26.0717   -1.1780   53.2831 H   0  0  0  0  0  0
   29.5800    1.3460   53.4755 H   0  0  0  0  0  0
   28.1110    3.3641   53.4667 H   0  0  0  0  0  0
   25.6613    3.1289   53.3922 H   0  0  0  0  0  0
   29.8821   -3.2231   53.3817 H   0  0  0  0  0  0
   16.9651   -1.9697   53.2745 H   0  0  0  0  0  0
   17.1946   -0.5383   54.2725 H   0  0  0  0  0  0
   14.8329   -0.6054   53.4181 H   0  0  0  0  0  0
   15.6793    0.7923   52.7664 H   0  0  0  0  0  0
   15.4125   -0.6278   51.7609 H   0  0  0  0  0  0
   17.9670    6.1323   47.0693 H   0  0  0  0  0  0
   17.7356    5.8782   49.6021 H   0  0  0  0  0  0
   19.9232    5.8799   50.8179 H   0  0  0  0  0  0
   20.8404    5.8189   49.2232 H   0  0  0  0  0  0
   19.7446    7.9575   48.4914 H   0  0  0  0  0  0
   18.7927    8.0290   50.0713 H   0  0  0  0  0  0
  1  2  1  0  0  0
  1  5  2  0  0  0
  1  6  1  0  0  0
  2  3  2  0  0  0
  2 33  1  0  0  0
  3  4  1  0  0  0
  3 34  1  0  0  0
  4 29  1  0  0  0
  4 35  1  0  0  0
  4 36  1  0  0  0
  6 13  1  0  0  0
  6 37  1  0  0  0
  7  8  1  0  0  0
  7 16  2  0  0  0
  8  9  2  0  0  0
  8 38  1  0  0  0
  9 10  1  0  0  0
 10 11  2  0  0  0
 10 17  1  0  0  0
 11 12  1  0  0  0
 11 16  1  0  0  0
 12 13  2  0  0  0
 12 39  1  0  0  0
 13 14  1  0  0  0
 14 15  2  0  0  0
 14 26  1  0  0  0
 15 16  1  0  0  0
 15 40  1  0  0  0
 17 18  1  0  0  0
 17 41  1  0  0  0
 18 19  1  0  0  0
 18 23  2  0  0  0
 19 20  2  0  0  0
 19 42  1  0  0  0
 20 21  1  0  0  0
 20 24  1  0  0  0
 21 22  2  0  0  0
 21 43  1  0  0  0
 22 23  1  0  0  0
 22 44  1  0  0  0
 23 45  1  0  0  0
 24 25  3  0  0  0
 25 46  1  0  0  0
 26 27  1  0  0  0
 27 28  1  0  0  0
 27 47  1  0  0  0
 27 48  1  0  0  0
 28 49  1  0  0  0
 28 50  1  0  0  0
 28 51  1  0  0  0
 29 30  1  0  0  0
 29 52  1  0  0  0
 30 31  1  0  0  0
 30 32  1  0  0  0
 30 53  1  0  0  0
 31 32  1  0  0  0
 31 54  1  0  0  0
 31 55  1  0  0  0
 32 56  1  0  0  0
 32 57  1  0  0  0
M  END
> <s_m_entry_id>
332

> <s_m_entry_name>
pocket_pv.143

> <s_m_Source_Path>
/home/bortolaa/Project/GT/mario-master/docking/set505protein_struct_1_site_1_set505ligs_train

> <s_m_Source_File>
pocket_pv.maegz

> <i_m_Source_File_Index>
143

> <From>
www.bindingDB.org

> <BindingDB Reactant_set_id>
50419131

> <Ligand InChI>
InChI=1S/C25H25N5O2/c1-3-17-7-5-8-19(13-17)29-25-20-14-22(23(32-4-2)15-21(20)27-16-28-25)30-24(31)9-6-12-26-18-10-11-18/h1,5-9,13-16,18,26H,4,10-12H2,2H3,(H,30,31)(H,27,28,29)/b9-6+

> <Ligand InChI Key>
GZYMSFBPJKRTBZ-RMKNXTFCSA-N

> <BindingDB MonomerID>
50123157

> <BindingDB Ligand Name>
CHEMBL3622678

> <Target Name Assigned by Curator or DataSource>
Epidermal growth factor receptor

> <Target Source Organism According to Curator or DataSource>
Homo sapiens

> <Ki (nM)>


> <Kd (nM)>


> <EC50 (nM)>


> <kon (M-1-s-1)>


> <koff (s-1)>


> <pH>


> <Temp C>


> <Curation/DataSource>
ChEMBL

> <Article DOI>
10.1016/j.ejmech.2015.08.026

> <PubChem AID>


> <Patent Number>


> <Authors>
Zhang, L; Yang, Y; Zhou, H; Zheng, Q; Li, Y; Zheng, S; Zhao, S; Chen, D; Fan, C

> <Institution>
Qilu Pharmaceutical Co, Ltd

> <Link to Ligand in BindingDB>
http://www.bindingdb.org/bind/chemsearch/marvin/MolStructure.jsp?monomerid=50123157

> <Link to Ligand-Target Pair in BindingDB>
http://www.bindingdb.org/jsp/dbsearch/PrimarySearch_ki.jsp?energyterm=kJ/mole&tag=r21&monomerid=50123157&enzyme=Epidermal+growth+factor+receptor&column=ki&startPg=0&Increment=50&submit=Search

> <Ligand HET ID in PDB>


> <PDB ID(s) for Ligand-Target Complex>


> <PubChem CID>
122191960

> <PubChem SID>
321901890

> <ChEBI ID of Ligand>


> <ChEMBL ID of Ligand>
CHEMBL3622678

> <DrugBank ID of Ligand>


> <IUPHAR_GRAC ID of Ligand>


> <KEGG ID of Ligand>


> <ZINC ID of Ligand>


> <Number of Protein Chains in Target (>
1

> <BindingDB Target Chain Sequence>
MRPSGTAGAALLALLAALCPASRALEEKKVCQGTSNKLTQLGTFEDHFLSLQRMFNNCEVVLGNLEITYVQRNYDLSFLKTIQEVAGYVLIALNTVERIPLENLQIIRGNMYYENSYALAVLSNYDANKTGLKELPMRNLQEILHGAVRFSNNPALCNVESIQWRDIVSSDFLSNMSMDFQNHLGSCQKCDPSCPNGSCWGAGEENCQKLTKIICAQQCSGRCRGKSPSDCCHNQCAAGCTGPRESDCLVCRKFRDEATCKDTCPPLMLYNPTTYQMDVNPEGKYSFGATCVKKCPRNYVVTDHGSCVRACGADSYEMEEDGVRKCKKCEGPCRKVCNGIGIGEFKDSLSINATNIKHFKNCTSISGDLHILPVAFRGDSFTHTPPLDPQELDILKTVKEITGFLLIQAWPENRTDLHAFENLEIIRGRTKQHGQFSLAVVSLNITSLGLRSLKEISDGDVIISGNKNLCYANTINWKKLFGTSGQKTKIISNRGENSCKATGQVCHALCSPEGCWGPEPRDCVSCRNVSRGRECVDKCNLLEGEPREFVENSECIQCHPECLPQAMNITCTGRGPDNCIQCAHYIDGPHCVKTCPAGVMGENNTLVWKYADAGHVCHLCHPNCTYGCTGPGLEGCPTNGPKIPSIATGMVGALLLLLVVALGIGLFMRRRHIVRKRTLRRLLQERELVEPLTPSGEAPNQALLRILKETEFKKIKVLGSGAFGTVYKGLWIPEGEKVKIPVAIKELREATSPKANKEILDEAYVMASVDNPHVCRLLGICLTSTVQLITQLMPFGCLLDYVREHKDNIGSQYLLNWCVQIAKGMNYLEDRRLVHRDLAARNVLVKTPQHVKITDFGLAKLLGAEEKEYHAEGGKVPIKWMALESILHRIYTHQSDVWSYGVTVWELMTFGSKPYDGIPASEISSILEKGERLPQPPICTIDVYMIMVKCWMIDADSRPKFRELIIEFSKMARDPQRYLVIQGDERMHLPSPTDSNFYRALMDEEDMDDVVDADEYLIPQQGFFSSPSTSRTPLLSSLSATSNNSTVACIDRNGLQSCPIKEDSFLQRYSSDPTGALTEDSIDDTFLPVPEYINQSVPKRPAGSVQNPVYHNQPLNPAPSRDPHYQDPHSTAVGNPEYLNTVQPTCVNSTFDSPAHWAQKGSHQISLDNPDYQQDFFPKEAKPNGIFKGSTAENAEYLRVAPQSSEFIGA

> <PDB ID(s) of Target Chain>
1IVO,1M14,1M17,1MOX,1XKK,1Z9I,2GS2,2GS6,2ITW,2ITX,2ITY,2J5E,2J5F,2J6M,2RF9,2RGP,3B2V,3BEL,3GOP,3POZ,3QWQ,3VJO,3W2O,3W2P,3W2Q,3W2R,3W2S,3W32,3W33,4G5J,4I23,4JQ7,4JQ8,4JR3,4JRV,4KRO,4LI5,4RJ4,4RJ5,4RJ6,4RJ7,4RJ8,4TKS,4UIP,4UV7,4WKQ,4WRG,4ZAU,5C8K,5C8M,5C8N,5CAL,5CAN,5CAO,5CAP,5CAQ,5CAS,5CAU,5CAV,5EDP,5EDQ,5EDR,5EM5,5EM6,5EM7,5EM8,5FED,5GNK,5HCX,5HCY,5HCZ,5HIB,5HIC,5UGB,5WB7,5WB8,5Y25,6S89,6S8A

> <UniProt (SwissProt) Recommended Name of Target Chain>
Epidermal growth factor receptor

> <UniProt (SwissProt) Entry Name of Target Chain>
EGFR_HUMAN

> <UniProt (SwissProt) Primary ID of Target Chain>
P00533

> <UniProt (SwissProt) Secondary ID(s) of Target Chain>
O00688,O00732,P06268,Q14225,Q68GS5,Q92795,Q9BZS2,Q9GZX1,Q9H2C9,Q9H3C9,Q9UMD7,Q9UMD8,Q9UMG5

> <UniProt (SwissProt) Alternative ID(s) of Target Chain>


> <UniProt (TrEMBL) Submitted Name of Target Chain>


> <UniProt (TrEMBL) Entry Name of Target Chain>


> <UniProt (TrEMBL) Primary ID of Target Chain>


> <UniProt (TrEMBL) Secondary ID(s) of Target Chain>


> <UniProt (TrEMBL) Alternative ID(s) of Target Chain>


> <training label>
8.37675

> <i_lp_mmshare_version>
54117

> <s_epik_input>
W0NIMl0xW0NIMl1bQ0hdMVtOSF1bQ0gyXVxbQ0hdPVtDSF1cQyg9TylbTkhdYyhbY0hdMiljKE9bQ0gyXVtDSDNdKVtjSF1jKGMyMyluW2NIXW5jM1tOSF1jNFtjSF1jKEMjW0NIXSlbY0hdW2NIXVtjSF00

> <s_epik_cmdline>
J2VwaWtfcHl0aG9uJywgJy1waHQnLCAnMC4xJywgJy1waCcsICc3LjQnLCAnLXRuJywgJzgnLCAnLW1hJywgJzIwMCcsICctaW1hZScsICc8aW5maWxlLm1hZT4nLCAnLW9tYWUnLCAnPG91dGZpbGUubWFlPic=

> <r_lp_tautomer_probability>
0.999978000241998

> <r_epik_Ionization_Penalty>
  0.2167

> <r_epik_Ionization_Penalty_Charging>
  0.0000

> <r_epik_Ionization_Penalty_Neutral>
  0.2167

> <r_epik_State_Penalty>
  0.2032

> <r_epik_Charging_Adjusted_Penalty>
0.203205070170935

> <i_epik_Tot_Q>
0

> <i_epik_Tot_abs_Q>
0

> <i_f3d_flags>
0

> <s_lp_Force_Field>
OPLS_2005

> <r_lp_Energy>
33.803666

> <b_lp_Chiralities_Consistent>
1

> <s_lp_Variant>
/home/bortolaa/Project/GT/mario-master/ligands/set505ligs_train.sdf:233-1

> <s_i_glide_gridfile>
struct_1_site_1

> <i_i_glide_lignum>
259

> <i_i_glide_rotatable_bonds>
11

> <r_i_docking_score>
-7.38582814361535

> <r_i_glide_ligand_efficiency>
-0.23080712948798

> <r_i_glide_ligand_efficiency_sa>
-0.732766959455434

> <r_i_glide_ligand_efficiency_ln>
-1.65388825142681

> <r_i_glide_gscore>
-7.58902814361535

> <r_i_glide_lipo>
-3.20276509911673

> <r_i_glide_hbond>
-0.32

> <r_i_glide_metal>
0

> <r_i_glide_rewards>
-1.76545467868829

> <r_i_glide_evdw>
-47.3464622497559

> <r_i_glide_ecoul>
-6.07528162002563

> <r_i_glide_erotb>
0.977806989681314

> <r_i_glide_esite>
0

> <r_i_glide_emodel>
-58.7255019898485

> <r_i_glide_energy>
-53.4217438697815

> <r_i_glide_einternal>
7.47823190689087

> <i_i_glide_confnum>
274

> <i_i_glide_posenum>
1

> <r_i_glide_eff_state_penalty>
0.2032

> <IC50 (nM)>
4.2

> <PMID>
26310890

> <r_glide_shape_similarity>
0.81381767988205

> <s_m_subgroup_title>
505 training

> <s_m_subgroupid>
pocket_pv

> <b_m_subgroup_collapsed>
0

$$$$
BindingDB_50102080_mol_1
                    3D
 Schrodinger Suite 2021-2.
 48 50  0  0  1  0            999 V2000
   22.0767   -0.1709   53.5074 C   0  0  0  0  0  0
   23.4381   -0.0991   53.8704 C   0  0  0  0  0  0
   21.2688   -1.1101   54.1776 C   0  0  0  0  0  0
   21.5284    0.6513   52.5145 C   0  0  0  0  0  0
   23.9364   -0.8996   54.8253 N   0  0  0  0  0  0
   19.9065   -1.1913   53.8272 C   0  0  0  0  0  0
   24.2877    0.8463   53.2777 N   0  0  0  0  0  0
   20.1844    0.5358   52.1351 C   0  0  0  0  0  0
   19.3528   -0.3657   52.8172 C   0  0  0  0  0  0
   27.8947   -0.0654   53.3868 C   0  0  0  0  0  0
   21.7988   -1.8924   55.1352 N   0  0  0  0  0  0
   26.5034   -0.1942   53.3317 C   0  0  0  0  0  0
   23.0906   -1.7367   55.4089 C   0  0  0  0  0  0
   25.6800    0.9464   53.3427 C   0  0  0  0  0  0
   28.4702    1.2047   53.4581 C   0  0  0  0  0  0
   27.6655    2.3505   53.4291 C   0  0  0  0  0  0
   28.8866   -1.4682   53.3746 Cl  0  0  0  0  0  0
   26.2705    2.2218   53.3676 C   0  0  0  0  0  0
   19.6597    1.3283   51.1425 O   0  0  0  0  0  0
   18.7142    2.5342   48.5002 N   0  3  0  0  0  0
   29.8038    1.3137   53.5719 F   0  0  0  0  0  0
   18.0353   -0.3687   52.4260 O   0  0  0  0  0  0
   20.4186    1.4399   49.9408 C   0  0  0  0  0  0
   20.0174    2.6963   49.1697 C   0  0  0  0  0  0
   17.5771    2.9342   49.3475 C   0  0  0  0  0  0
   18.6648    3.2073   47.1901 C   0  0  0  0  0  0
   17.1148   -1.1273   53.1791 C   0  0  0  0  0  0
   22.1526    1.3926   52.0446 H   0  0  0  0  0  0
   19.2923   -1.8968   54.3651 H   0  0  0  0  0  0
   23.8227    1.6220   52.8392 H   0  0  0  0  0  0
   26.0712   -1.1825   53.2763 H   0  0  0  0  0  0
   23.4996   -2.3784   56.1749 H   0  0  0  0  0  0
   28.1150    3.3322   53.4735 H   0  0  0  0  0  0
   25.6622    3.1158   53.3578 H   0  0  0  0  0  0
   20.2656    0.5503   49.3294 H   0  0  0  0  0  0
   21.4918    1.5020   50.1030 H   0  0  0  0  0  0
   20.7868    2.8634   48.4142 H   0  0  0  0  0  0
   20.0313    3.5790   49.8117 H   0  0  0  0  0  0
   17.6250    3.9949   49.5997 H   0  0  0  0  0  0
   17.5521    2.3640   50.2760 H   0  0  0  0  0  0
   16.6312    2.7522   48.8355 H   0  0  0  0  0  0
   18.8104    4.2835   47.2917 H   0  0  0  0  0  0
   19.4362    2.8175   46.5256 H   0  0  0  0  0  0
   17.7038    3.0366   46.7026 H   0  0  0  0  0  0
   16.1045   -0.9365   52.8173 H   0  0  0  0  0  0
   17.3086   -2.1956   53.0737 H   0  0  0  0  0  0
   17.1406   -0.8660   54.2376 H   0  0  0  0  0  0
   18.6078    1.5495   48.3071 H   0  0  0  0  0  0
  1  2  2  0  0  0
  1  3  1  0  0  0
  1  4  1  0  0  0
  2  5  1  0  0  0
  2  7  1  0  0  0
  3  6  1  0  0  0
  3 11  2  0  0  0
  4  8  2  0  0  0
  4 28  1  0  0  0
  5 13  2  0  0  0
  6  9  2  0  0  0
  6 29  1  0  0  0
  7 14  1  0  0  0
  7 30  1  0  0  0
  8  9  1  0  0  0
  8 19  1  0  0  0
  9 22  1  0  0  0
 10 12  2  0  0  0
 10 15  1  0  0  0
 10 17  1  0  0  0
 11 13  1  0  0  0
 12 14  1  0  0  0
 12 31  1  0  0  0
 13 32  1  0  0  0
 14 18  2  0  0  0
 15 16  2  0  0  0
 15 21  1  0  0  0
 16 18  1  0  0  0
 16 33  1  0  0  0
 18 34  1  0  0  0
 19 23  1  0  0  0
 20 24  1  0  0  0
 20 25  1  0  0  0
 20 26  1  0  0  0
 20 48  1  0  0  0
 22 27  1  0  0  0
 23 24  1  0  0  0
 23 35  1  0  0  0
 23 36  1  0  0  0
 24 37  1  0  0  0
 24 38  1  0  0  0
 25 39  1  0  0  0
 25 40  1  0  0  0
 25 41  1  0  0  0
 26 42  1  0  0  0
 26 43  1  0  0  0
 26 44  1  0  0  0
 27 45  1  0  0  0
 27 46  1  0  0  0
 27 47  1  0  0  0
M  CHG  1  20   1
M  END
> <s_m_entry_id>
333

> <s_m_entry_name>
pocket_pv.144

> <s_m_Source_Path>
/home/bortolaa/Project/GT/mario-master/docking/set505protein_struct_1_site_1_set505ligs_train

> <s_m_Source_File>
pocket_pv.maegz

> <i_m_Source_File_Index>
144

> <From>
www.bindingDB.org

> <BindingDB Reactant_set_id>
50733026

> <Ligand InChI>
InChI=1S/C19H20ClFN4O2/c1-25(2)6-7-27-18-9-13-16(10-17(18)26-3)22-11-23-19(13)24-12-4-5-15(21)14(20)8-12/h4-5,8-11H,6-7H2,1-3H3,(H,22,23,24)

> <Ligand InChI Key>
CBVZLUIKUXDQLU-UHFFFAOYSA-N

> <BindingDB MonomerID>
50102080

> <BindingDB Ligand Name>
(3-Chloro-4-fluoro-phenyl)-[6-(2-dimethylamino-ethoxy)-7-methoxy-quinazolin-4-yl]-amine::CHEMBL57759

> <Target Name Assigned by Curator or DataSource>
Epidermal growth factor receptor

> <Target Source Organism According to Curator or DataSource>
Homo sapiens

> <Ki (nM)>


> <Kd (nM)>


> <EC50 (nM)>


> <kon (M-1-s-1)>


> <koff (s-1)>


> <pH>


> <Temp C>


> <Curation/DataSource>
ChEMBL

> <Article DOI>
10.1016/s0960-894x(01)00344-4

> <PubChem AID>


> <Patent Number>


> <Authors>
Barker, AJ; Gibson, KH; Grundy, W; Godfrey, AA; Barlow, JJ; Healy, MP; Woodburn, JR; Ashton, SE; Curry, BJ; Scarlett, L; Henthorn, L; Richards, L

> <Institution>
AstraZeneca

> <Link to Ligand in BindingDB>
http://www.bindingdb.org/bind/chemsearch/marvin/MolStructure.jsp?monomerid=50102080

> <Link to Ligand-Target Pair in BindingDB>
http://www.bindingdb.org/jsp/dbsearch/PrimarySearch_ki.jsp?energyterm=kJ/mole&tag=r21&monomerid=50102080&enzyme=Epidermal+growth+factor+receptor&column=ki&startPg=0&Increment=50&submit=Search

> <Ligand HET ID in PDB>


> <PDB ID(s) for Ligand-Target Complex>


> <PubChem CID>
19077501

> <PubChem SID>
103998637

> <ChEBI ID of Ligand>


> <ChEMBL ID of Ligand>
CHEMBL57759

> <DrugBank ID of Ligand>


> <IUPHAR_GRAC ID of Ligand>


> <KEGG ID of Ligand>


> <ZINC ID of Ligand>
ZINC29560576

> <Number of Protein Chains in Target (>
1

> <BindingDB Target Chain Sequence>
MRPSGTAGAALLALLAALCPASRALEEKKVCQGTSNKLTQLGTFEDHFLSLQRMFNNCEVVLGNLEITYVQRNYDLSFLKTIQEVAGYVLIALNTVERIPLENLQIIRGNMYYENSYALAVLSNYDANKTGLKELPMRNLQEILHGAVRFSNNPALCNVESIQWRDIVSSDFLSNMSMDFQNHLGSCQKCDPSCPNGSCWGAGEENCQKLTKIICAQQCSGRCRGKSPSDCCHNQCAAGCTGPRESDCLVCRKFRDEATCKDTCPPLMLYNPTTYQMDVNPEGKYSFGATCVKKCPRNYVVTDHGSCVRACGADSYEMEEDGVRKCKKCEGPCRKVCNGIGIGEFKDSLSINATNIKHFKNCTSISGDLHILPVAFRGDSFTHTPPLDPQELDILKTVKEITGFLLIQAWPENRTDLHAFENLEIIRGRTKQHGQFSLAVVSLNITSLGLRSLKEISDGDVIISGNKNLCYANTINWKKLFGTSGQKTKIISNRGENSCKATGQVCHALCSPEGCWGPEPRDCVSCRNVSRGRECVDKCNLLEGEPREFVENSECIQCHPECLPQAMNITCTGRGPDNCIQCAHYIDGPHCVKTCPAGVMGENNTLVWKYADAGHVCHLCHPNCTYGCTGPGLEGCPTNGPKIPSIATGMVGALLLLLVVALGIGLFMRRRHIVRKRTLRRLLQERELVEPLTPSGEAPNQALLRILKETEFKKIKVLGSGAFGTVYKGLWIPEGEKVKIPVAIKELREATSPKANKEILDEAYVMASVDNPHVCRLLGICLTSTVQLITQLMPFGCLLDYVREHKDNIGSQYLLNWCVQIAKGMNYLEDRRLVHRDLAARNVLVKTPQHVKITDFGLAKLLGAEEKEYHAEGGKVPIKWMALESILHRIYTHQSDVWSYGVTVWELMTFGSKPYDGIPASEISSILEKGERLPQPPICTIDVYMIMVKCWMIDADSRPKFRELIIEFSKMARDPQRYLVIQGDERMHLPSPTDSNFYRALMDEEDMDDVVDADEYLIPQQGFFSSPSTSRTPLLSSLSATSNNSTVACIDRNGLQSCPIKEDSFLQRYSSDPTGALTEDSIDDTFLPVPEYINQSVPKRPAGSVQNPVYHNQPLNPAPSRDPHYQDPHSTAVGNPEYLNTVQPTCVNSTFDSPAHWAQKGSHQISLDNPDYQQDFFPKEAKPNGIFKGSTAENAEYLRVAPQSSEFIGA

> <PDB ID(s) of Target Chain>
1IVO,1M14,1M17,1MOX,1XKK,1Z9I,2GS2,2GS6,2ITW,2ITX,2ITY,2J5E,2J5F,2J6M,2RF9,2RGP,3B2V,3BEL,3GOP,3POZ,3QWQ,3VJO,3W2O,3W2P,3W2Q,3W2R,3W2S,3W32,3W33,4G5J,4I23,4JQ7,4JQ8,4JR3,4JRV,4KRO,4LI5,4RJ4,4RJ5,4RJ6,4RJ7,4RJ8,4TKS,4UIP,4UV7,4WKQ,4WRG,4ZAU,5C8K,5C8M,5C8N,5CAL,5CAN,5CAO,5CAP,5CAQ,5CAS,5CAU,5CAV,5EDP,5EDQ,5EDR,5EM5,5EM6,5EM7,5EM8,5FED,5GNK,5HCX,5HCY,5HCZ,5HIB,5HIC,5UGB,5WB7,5WB8,5Y25,6S89,6S8A

> <UniProt (SwissProt) Recommended Name of Target Chain>
Epidermal growth factor receptor

> <UniProt (SwissProt) Entry Name of Target Chain>
EGFR_HUMAN

> <UniProt (SwissProt) Primary ID of Target Chain>
P00533

> <UniProt (SwissProt) Secondary ID(s) of Target Chain>
O00688,O00732,P06268,Q14225,Q68GS5,Q92795,Q9BZS2,Q9GZX1,Q9H2C9,Q9H3C9,Q9UMD7,Q9UMD8,Q9UMG5

> <UniProt (SwissProt) Alternative ID(s) of Target Chain>


> <UniProt (TrEMBL) Submitted Name of Target Chain>


> <UniProt (TrEMBL) Entry Name of Target Chain>


> <UniProt (TrEMBL) Primary ID of Target Chain>


> <UniProt (TrEMBL) Secondary ID(s) of Target Chain>


> <UniProt (TrEMBL) Alternative ID(s) of Target Chain>


> <training label>
8.1549

> <i_lp_mmshare_version>
54117

> <s_epik_input>
W0NIM11OKFtDSDNdKVtDSDJdW0NIMl1PYyhbY0hdMSljKE9bQ0gzXSlbY0hdYyhjMTIpbltjSF1uYzJbTkhdYyhbY0hdYzNDbClbY0hdW2NIXWMzRg==

> <s_epik_cmdline>
J2VwaWtfcHl0aG9uJywgJy1waHQnLCAnMC4xJywgJy1waCcsICc3LjQnLCAnLXRuJywgJzgnLCAnLW1hJywgJzIwMCcsICctaW1hZScsICc8aW5maWxlLm1hZT4nLCAnLW9tYWUnLCAnPG91dGZpbGUubWFlPic=

> <r_lp_tautomer_probability>
0.999978000241998

> <r_epik_Ionization_Penalty>
  0.0608

> <r_epik_Ionization_Penalty_Charging>
  0.0604

> <r_epik_Ionization_Penalty_Neutral>
  0.0004

> <r_epik_State_Penalty>
  0.0524

> <r_epik_Charging_Adjusted_Penalty>
0.112841773912698

> <i_epik_Tot_Q>
1

> <i_epik_Tot_abs_Q>
1

> <i_f3d_flags>
0

> <s_lp_Force_Field>
OPLS_2005

> <r_lp_Energy>
27.619106

> <b_lp_Chiralities_Consistent>
1

> <s_lp_Variant>
BindingDB_50102080_mol_1-1

> <s_i_glide_gridfile>
struct_1_site_1

> <i_i_glide_lignum>
245

> <i_i_glide_rotatable_bonds>
7

> <r_i_docking_score>
-7.38570770733147

> <r_i_glide_ligand_efficiency>
-0.273544729901165

> <r_i_glide_ligand_efficiency_sa>
-0.820634188801938

> <r_i_glide_ligand_efficiency_ln>
-1.71927099135892

> <r_i_glide_gscore>
-7.43810770733147

> <r_i_glide_lipo>
-2.98247356982493

> <r_i_glide_hbond>
-0.32

> <r_i_glide_metal>
0

> <r_i_glide_rewards>
-1.89697504013467

> <r_i_glide_evdw>
-41.1221046447754

> <r_i_glide_ecoul>
-5.03029108047485

> <r_i_glide_erotb>
0.635609013937773

> <r_i_glide_esite>
-0.0636192169996462

> <r_i_glide_emodel>
-61.8816871962044

> <r_i_glide_energy>
-46.1523957252502

> <r_i_glide_einternal>
4.06813335418701

> <i_i_glide_confnum>
129

> <i_i_glide_posenum>
7

> <r_i_glide_eff_state_penalty>
0.0524

> <IC50 (nM)>
7

> <PMID>
11459659

> <r_glide_shape_similarity>
0.897811472415924

> <s_m_subgroup_title>
505 training

> <s_m_subgroupid>
pocket_pv

> <b_m_subgroup_collapsed>
0

$$$$
BindingDB_50189990_mol_1
                    3D
 Schrodinger Suite 2021-2.
 55 58  0  0  1  0            999 V2000
   21.8007   -1.9078   55.1481 N   0  0  0  0  0  0
   23.0973   -1.7534   55.4169 C   0  0  0  0  0  0
   23.9429   -0.9080   54.8303 N   0  0  0  0  0  0
   23.4403   -0.1003   53.8707 C   0  0  0  0  0  0
   21.2678   -1.1213   54.1856 C   0  0  0  0  0  0
   22.0718   -0.1702   53.5036 C   0  0  0  0  0  0
   21.5108    0.6514   52.4993 C   0  0  0  0  0  0
   20.1481    0.5121   52.1375 C   0  0  0  0  0  0
   19.3258   -0.4017   52.8382 C   0  0  0  0  0  0
   19.8990   -1.2168   53.8495 C   0  0  0  0  0  0
   17.9882   -0.4231   52.4716 O   0  0  0  0  0  0
   19.5395    1.2024   51.1117 O   0  0  0  0  0  0
   24.2883    0.8519   53.2773 N   0  0  0  0  0  0
   25.6854    0.9449   53.3390 C   0  0  0  0  0  0
   26.5129   -0.2071   53.3244 C   0  0  0  0  0  0
   27.9148   -0.0784   53.3862 C   0  0  0  0  0  0
   28.4943    1.2079   53.4645 C   0  0  0  0  0  0
   27.6771    2.3597   53.4280 C   0  0  0  0  0  0
   26.2746    2.2298   53.3664 C   0  0  0  0  0  0
   28.9131   -1.4943   53.3730 Cl  0  0  0  0  0  0
   17.0682   -1.1608   53.2672 C   0  0  0  0  0  0
   29.8358    1.3263   53.5993 F   0  0  0  0  0  0
   20.2740    2.0949   50.2789 C   0  0  0  0  0  0
   19.6225    2.0683   48.8753 C   0  0  1  0  0  0
   18.0690    2.1217   48.8893 C   0  0  0  0  0  0
   17.5401    3.5023   49.3231 C   0  0  0  0  0  0
   18.0587    4.5696   48.4104 N   0  3  2  0  0  0
   19.5608    4.5884   48.3440 C   0  0  0  0  0  0
   20.1483    3.1997   47.9592 C   0  0  0  0  0  0
   17.4945    5.9136   48.7314 C   0  0  0  0  0  0
   23.5121   -2.3999   56.1743 H   0  0  0  0  0  0
   22.1411    1.3610   51.9961 H   0  0  0  0  0  0
   19.2969   -1.9207   54.4044 H   0  0  0  0  0  0
   23.8206    1.6292   52.8323 H   0  0  0  0  0  0
   26.0824   -1.1978   53.2702 H   0  0  0  0  0  0
   28.1232    3.3426   53.4735 H   0  0  0  0  0  0
   25.6605    3.1181   53.3524 H   0  0  0  0  0  0
   16.0531   -0.9789   52.9159 H   0  0  0  0  0  0
   17.2637   -2.2292   53.1913 H   0  0  0  0  0  0
   17.1150   -0.8635   54.3170 H   0  0  0  0  0  0
   21.3380    1.8462   50.1673 H   0  0  0  0  0  0
   20.2072    3.0936   50.7279 H   0  0  0  0  0  0
   19.9151    1.1156   48.4338 H   0  0  0  0  0  0
   17.6525    1.3341   49.5182 H   0  0  0  0  0  0
   17.6917    1.9329   47.8807 H   0  0  0  0  0  0
   17.8168    3.7224   50.3534 H   0  0  0  0  0  0
   16.4450    3.4917   49.2959 H   0  0  0  0  0  0
   19.9599    4.9113   49.3064 H   0  0  0  0  0  0
   19.8810    5.3326   47.6122 H   0  0  0  0  0  0
   19.8714    2.9651   46.9297 H   0  0  0  0  0  0
   21.2399    3.2294   47.9752 H   0  0  0  0  0  0
   17.8896    6.2651   49.6835 H   0  0  0  0  0  0
   17.7631    6.6293   47.9569 H   0  0  0  0  0  0
   16.4049    5.8886   48.8003 H   0  0  0  0  0  0
   17.7208    4.3356   47.4805 H   0  0  0  0  0  0
  1  2  1  0  0  0
  1  5  2  0  0  0
  2  3  2  0  0  0
  2 31  1  0  0  0
  3  4  1  0  0  0
  4  6  2  0  0  0
  4 13  1  0  0  0
  5  6  1  0  0  0
  5 10  1  0  0  0
  6  7  1  0  0  0
  7  8  2  0  0  0
  7 32  1  0  0  0
  8  9  1  0  0  0
  8 12  1  0  0  0
  9 10  2  0  0  0
  9 11  1  0  0  0
 10 33  1  0  0  0
 11 21  1  0  0  0
 12 23  1  0  0  0
 13 14  1  0  0  0
 13 34  1  0  0  0
 14 15  1  0  0  0
 14 19  2  0  0  0
 15 16  2  0  0  0
 15 35  1  0  0  0
 16 17  1  0  0  0
 16 20  1  0  0  0
 17 18  2  0  0  0
 17 22  1  0  0  0
 18 19  1  0  0  0
 18 36  1  0  0  0
 19 37  1  0  0  0
 21 38  1  0  0  0
 21 39  1  0  0  0
 21 40  1  0  0  0
 23 24  1  0  0  0
 23 41  1  0  0  0
 23 42  1  0  0  0
 24 25  1  0  0  0
 24 29  1  0  0  0
 24 43  1  0  0  0
 25 26  1  0  0  0
 25 44  1  0  0  0
 25 45  1  0  0  0
 26 27  1  0  0  0
 26 46  1  0  0  0
 26 47  1  0  0  0
 27 28  1  0  0  0
 27 30  1  0  0  0
 27 55  1  0  0  0
 28 29  1  0  0  0
 28 48  1  0  0  0
 28 49  1  0  0  0
 29 50  1  0  0  0
 29 51  1  0  0  0
 30 52  1  0  0  0
 30 53  1  0  0  0
 30 54  1  0  0  0
M  CHG  1  27   1
M  END
> <s_m_entry_id>
334

> <s_m_entry_name>
pocket_pv.145

> <s_m_Source_Path>
/home/bortolaa/Project/GT/mario-master/docking/set505protein_struct_1_site_1_set505ligs_train

> <s_m_Source_File>
pocket_pv.maegz

> <i_m_Source_File_Index>
145

> <From>
www.bindingDB.org

> <BindingDB Reactant_set_id>
50351565

> <Ligand InChI>
InChI=1S/C22H24ClFN4O2/c1-28-7-5-14(6-8-28)12-30-21-10-16-19(11-20(21)29-2)25-13-26-22(16)27-15-3-4-18(24)17(23)9-15/h3-4,9-11,13-14H,5-8,12H2,1-2H3,(H,25,26,27)

> <Ligand InChI Key>
ZLQLCQDRTGSFPU-UHFFFAOYSA-N

> <BindingDB MonomerID>
50189990

> <BindingDB Ligand Name>
CHEMBL215786::N-(3-chloro-4-fluorophenyl)-7-methoxy-6-((1-methylpiperidin-4-yl)methoxy)quinazolin-4-amine

> <Target Name Assigned by Curator or DataSource>
Epidermal growth factor receptor

> <Target Source Organism According to Curator or DataSource>
Homo sapiens

> <Ki (nM)>


> <Kd (nM)>


> <EC50 (nM)>


> <kon (M-1-s-1)>


> <koff (s-1)>


> <pH>


> <Temp C>


> <Curation/DataSource>
ChEMBL

> <Article DOI>
10.1016/j.bmcl.2006.06.054

> <PubChem AID>


> <Patent Number>


> <Authors>
Ballard, P; Bradbury, RH; Harris, CS; Hennequin, LF; Hickinson, M; Kettle, JG; Kendrew, J; Klinowska, T; Ogilvie, DJ; Pearson, SE; Williams, EJ; Wilson, I

> <Institution>
AstraZeneca

> <Link to Ligand in BindingDB>
http://www.bindingdb.org/bind/chemsearch/marvin/MolStructure.jsp?monomerid=50189990

> <Link to Ligand-Target Pair in BindingDB>
http://www.bindingdb.org/jsp/dbsearch/PrimarySearch_ki.jsp?energyterm=kJ/mole&tag=r21&monomerid=50189990&enzyme=Epidermal+growth+factor+receptor&column=ki&startPg=0&Increment=50&submit=Search

> <Ligand HET ID in PDB>


> <PDB ID(s) for Ligand-Target Complex>


> <PubChem CID>
44416461

> <PubChem SID>
104073412

> <ChEBI ID of Ligand>


> <ChEMBL ID of Ligand>
CHEMBL215786

> <DrugBank ID of Ligand>


> <IUPHAR_GRAC ID of Ligand>


> <KEGG ID of Ligand>


> <ZINC ID of Ligand>
ZINC34800099

> <Number of Protein Chains in Target (>
1

> <BindingDB Target Chain Sequence>
MRPSGTAGAALLALLAALCPASRALEEKKVCQGTSNKLTQLGTFEDHFLSLQRMFNNCEVVLGNLEITYVQRNYDLSFLKTIQEVAGYVLIALNTVERIPLENLQIIRGNMYYENSYALAVLSNYDANKTGLKELPMRNLQEILHGAVRFSNNPALCNVESIQWRDIVSSDFLSNMSMDFQNHLGSCQKCDPSCPNGSCWGAGEENCQKLTKIICAQQCSGRCRGKSPSDCCHNQCAAGCTGPRESDCLVCRKFRDEATCKDTCPPLMLYNPTTYQMDVNPEGKYSFGATCVKKCPRNYVVTDHGSCVRACGADSYEMEEDGVRKCKKCEGPCRKVCNGIGIGEFKDSLSINATNIKHFKNCTSISGDLHILPVAFRGDSFTHTPPLDPQELDILKTVKEITGFLLIQAWPENRTDLHAFENLEIIRGRTKQHGQFSLAVVSLNITSLGLRSLKEISDGDVIISGNKNLCYANTINWKKLFGTSGQKTKIISNRGENSCKATGQVCHALCSPEGCWGPEPRDCVSCRNVSRGRECVDKCNLLEGEPREFVENSECIQCHPECLPQAMNITCTGRGPDNCIQCAHYIDGPHCVKTCPAGVMGENNTLVWKYADAGHVCHLCHPNCTYGCTGPGLEGCPTNGPKIPSIATGMVGALLLLLVVALGIGLFMRRRHIVRKRTLRRLLQERELVEPLTPSGEAPNQALLRILKETEFKKIKVLGSGAFGTVYKGLWIPEGEKVKIPVAIKELREATSPKANKEILDEAYVMASVDNPHVCRLLGICLTSTVQLITQLMPFGCLLDYVREHKDNIGSQYLLNWCVQIAKGMNYLEDRRLVHRDLAARNVLVKTPQHVKITDFGLAKLLGAEEKEYHAEGGKVPIKWMALESILHRIYTHQSDVWSYGVTVWELMTFGSKPYDGIPASEISSILEKGERLPQPPICTIDVYMIMVKCWMIDADSRPKFRELIIEFSKMARDPQRYLVIQGDERMHLPSPTDSNFYRALMDEEDMDDVVDADEYLIPQQGFFSSPSTSRTPLLSSLSATSNNSTVACIDRNGLQSCPIKEDSFLQRYSSDPTGALTEDSIDDTFLPVPEYINQSVPKRPAGSVQNPVYHNQPLNPAPSRDPHYQDPHSTAVGNPEYLNTVQPTCVNSTFDSPAHWAQKGSHQISLDNPDYQQDFFPKEAKPNGIFKGSTAENAEYLRVAPQSSEFIGA

> <PDB ID(s) of Target Chain>
1IVO,1M14,1M17,1MOX,1XKK,1Z9I,2GS2,2GS6,2ITW,2ITX,2ITY,2J5E,2J5F,2J6M,2RF9,2RGP,3B2V,3BEL,3GOP,3POZ,3QWQ,3VJO,3W2O,3W2P,3W2Q,3W2R,3W2S,3W32,3W33,4G5J,4I23,4JQ7,4JQ8,4JR3,4JRV,4KRO,4LI5,4RJ4,4RJ5,4RJ6,4RJ7,4RJ8,4TKS,4UIP,4UV7,4WKQ,4WRG,4ZAU,5C8K,5C8M,5C8N,5CAL,5CAN,5CAO,5CAP,5CAQ,5CAS,5CAU,5CAV,5EDP,5EDQ,5EDR,5EM5,5EM6,5EM7,5EM8,5FED,5GNK,5HCX,5HCY,5HCZ,5HIB,5HIC,5UGB,5WB7,5WB8,5Y25,6S89,6S8A

> <UniProt (SwissProt) Recommended Name of Target Chain>
Epidermal growth factor receptor

> <UniProt (SwissProt) Entry Name of Target Chain>
EGFR_HUMAN

> <UniProt (SwissProt) Primary ID of Target Chain>
P00533

> <UniProt (SwissProt) Secondary ID(s) of Target Chain>
O00688,O00732,P06268,Q14225,Q68GS5,Q92795,Q9BZS2,Q9GZX1,Q9H2C9,Q9H3C9,Q9UMD7,Q9UMD8,Q9UMG5

> <UniProt (SwissProt) Alternative ID(s) of Target Chain>


> <UniProt (TrEMBL) Submitted Name of Target Chain>


> <UniProt (TrEMBL) Entry Name of Target Chain>


> <UniProt (TrEMBL) Primary ID of Target Chain>


> <UniProt (TrEMBL) Secondary ID(s) of Target Chain>


> <UniProt (TrEMBL) Alternative ID(s) of Target Chain>


> <training label>
8.52288

> <i_lp_mmshare_version>
54117

> <s_epik_input>
W2NIXTFbY0hdYyhGKWMoQ2wpW2NIXWMxW05IXWMobltjSF1uMiljKGMyMylbY0hdYyhjKFtjSF0zKU9bQ0gzXSlPW0NIMl1bQ0hdNFtDSDJdW0NIMl1OKFtDSDNdKVtDSDJdW0NIMl00

> <s_epik_cmdline>
J2VwaWtfcHl0aG9uJywgJy1waHQnLCAnMC4xJywgJy1waCcsICc3LjQnLCAnLXRuJywgJzgnLCAnLW1hJywgJzIwMCcsICctaW1hZScsICc8aW5maWxlLm1hZT4nLCAnLW9tYWUnLCAnPG91dGZpbGUubWFlPic=

> <r_lp_tautomer_probability>
1

> <r_epik_Ionization_Penalty>
  0.0049

> <r_epik_Ionization_Penalty_Charging>
  0.0039

> <r_epik_Ionization_Penalty_Neutral>
  0.0010

> <r_epik_State_Penalty>
  0.0000

> <r_epik_Charging_Adjusted_Penalty>
0.0038691425947202

> <i_epik_Tot_Q>
1

> <i_epik_Tot_abs_Q>
1

> <i_f3d_flags>
0

> <s_lp_Force_Field>
OPLS_2005

> <r_lp_Energy>
33.699382

> <b_lp_Chiralities_Consistent>
1

> <s_lp_Variant>
BindingDB_50189990_mol_1-2

> <s_i_glide_gridfile>
struct_1_site_1

> <i_i_glide_lignum>
266

> <i_i_glide_rotatable_bonds>
6

> <r_i_docking_score>
-7.3850970167521

> <r_i_glide_ligand_efficiency>
-0.246169900558403

> <r_i_glide_ligand_efficiency_sa>
-0.7649071161353

> <r_i_glide_ligand_efficiency_ln>
-1.67797450928298

> <r_i_glide_gscore>
-7.3850970167521

> <r_i_glide_lipo>
-2.91057491109188

> <r_i_glide_hbond>
-0.32

> <r_i_glide_metal>
0

> <r_i_glide_rewards>
-1.60842739163665

> <r_i_glide_evdw>
-41.5817947387695

> <r_i_glide_ecoul>
-6.17479658126831

> <r_i_glide_erotb>
0.533216494566337

> <r_i_glide_esite>
-0.0740019844611821

> <r_i_glide_emodel>
-59.2829698346617

> <r_i_glide_energy>
-47.7565913200378

> <r_i_glide_einternal>
4.00214004516602

> <i_i_glide_confnum>
2

> <i_i_glide_posenum>
281

> <r_i_glide_eff_state_penalty>
0

> <IC50 (nM)>
3

> <PMID>
16806916

> <r_glide_shape_similarity>
0.845899224281311

> <s_m_subgroup_title>
505 training

> <s_m_subgroupid>
pocket_pv

> <b_m_subgroup_collapsed>
0

$$$$
4-Anilinoquinazoline
                    3D
 Schrodinger Suite 2021-2.
 52 55  0  0  1  0            999 V2000
   23.4583   -0.0968   53.8653 C   0  0  0  0  0  0
   23.0973   -1.7474   55.4198 C   0  0  0  0  0  0
   21.2674   -1.1059   54.1817 C   0  0  0  0  0  0
   22.0818   -0.1583   53.4993 C   0  0  0  0  0  0
   21.5362    0.6676   52.4870 C   0  0  0  0  0  0
   20.1799    0.5310   52.1081 C   0  0  0  0  0  0
   19.3656   -0.4113   52.7720 C   0  0  0  0  0  0
   19.9012   -1.2068   53.8221 C   0  0  0  0  0  0
   23.9395   -0.9042   54.8366 N   0  0  0  0  0  0
   21.8029   -1.9004   55.1440 N   0  0  0  0  0  0
   25.7818    0.7140   53.2850 C   0  0  0  0  0  0
   27.9649    1.8117   53.5583 C   0  0  0  0  0  0
   26.5536    1.8933   53.4436 C   0  0  0  0  0  0
   26.4717   -0.5258   53.1403 C   0  0  0  0  0  0
   28.6004    0.5445   53.5258 C   0  0  0  0  0  0
   25.9365    3.0900   53.5231 F   0  0  0  0  0  0
   24.3707    0.7884   53.2542 N   0  0  0  0  0  0
   23.9791    1.6426   52.8742 H   0  0  0  0  0  0
   18.1119   -0.5686   52.2350 O   0  0  0  0  0  0
   19.6001    1.2685   51.0895 O   0  0  0  0  0  0
   20.4098    1.6665   49.9863 C   0  0  0  0  0  0
   17.0297   -0.9402   53.0644 C   0  0  0  0  0  0
   15.7422   -0.4784   52.3250 C   0  0  0  0  0  0
   14.4981   -0.6118   53.2443 C   0  0  0  0  0  0
   13.2104   -0.0006   52.6607 C   0  0  0  0  0  0
   14.5294    1.5166   51.2218 C   0  0  0  0  0  0
   15.8651    0.9699   51.7821 C   0  0  0  0  0  0
   13.4409    1.4095   52.2366 N   0  3  0  0  0  0
   27.8635   -0.6142   53.2940 C   0  0  0  0  0  0
   30.2868    0.3350   53.7729 Cl  0  0  0  0  0  0
   25.8287   -1.6651   52.8142 F   0  0  0  0  0  0
   23.5068   -2.3917   56.1787 H   0  0  0  0  0  0
   22.1552    1.3893   51.9817 H   0  0  0  0  0  0
   19.2801   -1.9359   54.3136 H   0  0  0  0  0  0
   28.5441    2.7074   53.7131 H   0  0  0  0  0  0
   19.7683    1.9874   49.1627 H   0  0  0  0  0  0
   21.0508    2.5068   50.2544 H   0  0  0  0  0  0
   21.0371    0.8500   49.6231 H   0  0  0  0  0  0
   17.1150   -0.4672   54.0398 H   0  0  0  0  0  0
   17.0293   -2.0148   53.2344 H   0  0  0  0  0  0
   15.5993   -1.1332   51.4624 H   0  0  0  0  0  0
   14.7093   -0.1198   54.1904 H   0  0  0  0  0  0
   14.3219   -1.6659   53.4507 H   0  0  0  0  0  0
   12.4006   -0.0349   53.3941 H   0  0  0  0  0  0
   12.8778   -0.5817   51.7954 H   0  0  0  0  0  0
   14.6423    2.5558   50.9098 H   0  0  0  0  0  0
   14.2457    0.9524   50.3259 H   0  0  0  0  0  0
   16.6286    1.0241   51.0070 H   0  0  0  0  0  0
   16.2038    1.6206   52.5722 H   0  0  0  0  0  0
   13.7057    1.9494   53.0560 H   0  0  0  0  0  0
   28.3517   -1.5796   53.2187 H   0  0  0  0  0  0
   12.5768    1.8008   51.8627 H   0  0  0  0  0  0
  1  4  2  0  0  0
  1  9  1  0  0  0
  1 17  1  0  0  0
  2  9  2  0  0  0
  2 10  1  0  0  0
  2 32  1  0  0  0
  3  4  1  0  0  0
  3  8  1  0  0  0
  3 10  2  0  0  0
  4  5  1  0  0  0
  5  6  2  0  0  0
  5 33  1  0  0  0
  6  7  1  0  0  0
  6 20  1  0  0  0
  7  8  2  0  0  0
  7 19  1  0  0  0
  8 34  1  0  0  0
 11 13  2  0  0  0
 11 14  1  0  0  0
 11 17  1  0  0  0
 12 13  1  0  0  0
 12 15  2  0  0  0
 12 35  1  0  0  0
 13 16  1  0  0  0
 14 29  2  0  0  0
 14 31  1  0  0  0
 15 29  1  0  0  0
 15 30  1  0  0  0
 17 18  1  0  0  0
 19 22  1  0  0  0
 20 21  1  0  0  0
 21 36  1  0  0  0
 21 37  1  0  0  0
 21 38  1  0  0  0
 22 23  1  0  0  0
 22 39  1  0  0  0
 22 40  1  0  0  0
 23 24  1  0  0  0
 23 27  1  0  0  0
 23 41  1  0  0  0
 24 25  1  0  0  0
 24 42  1  0  0  0
 24 43  1  0  0  0
 25 28  1  0  0  0
 25 44  1  0  0  0
 25 45  1  0  0  0
 26 27  1  0  0  0
 26 28  1  0  0  0
 26 46  1  0  0  0
 26 47  1  0  0  0
 27 48  1  0  0  0
 27 49  1  0  0  0
 28 50  1  0  0  0
 28 52  1  0  0  0
 29 51  1  0  0  0
M  CHG  1  28   1
M  END
> <s_m_entry_id>
335

> <s_m_entry_name>
pocket_pv.146

> <s_m_Source_Path>
/home/bortolaa/Project/GT/mario-master/docking/set505protein_struct_1_site_1_set505ligs_train

> <s_m_Source_File>
pocket_pv.maegz

> <i_m_Source_File_Index>
146

> <From>
www.bindingDB.org

> <BindingDB Reactant_set_id>
7090

> <Ligand InChI>
InChI=1S/C21H21ClF2N4O2/c1-29-18-8-14-17(9-19(18)30-10-12-2-4-25-5-3-12)26-11-27-21(14)28-20-15(23)6-13(22)7-16(20)24/h6-9,11-12,25H,2-5,10H2,1H3,(H,26,27,28)

> <Ligand InChI Key>
FYZOPODRENDNJN-UHFFFAOYSA-N

> <BindingDB MonomerID>
4677

> <BindingDB Ligand Name>
4-Anilinoquinazoline 24::N-(4-chloro-2,6-difluorophenyl)-6-methoxy-7-(piperidin-4-ylmethoxy)quinazolin-4-amine

> <Target Name Assigned by Curator or DataSource>
Epidermal growth factor receptor

> <Target Source Organism According to Curator or DataSource>
Homo sapiens

> <Ki (nM)>


> <Kd (nM)>


> <EC50 (nM)>


> <kon (M-1-s-1)>


> <koff (s-1)>


> <pH>


> <Curation/DataSource>
Curated from the literature by BindingDB

> <Article DOI>
10.1021/jm011022e

> <PubChem AID>


> <Patent Number>


> <Authors>
Hennequin, LF; Stokes, ES; Thomas, AP; Johnstone, C; Ple, PA; Ogilvie, DJ; Dukes, M; Wedge, SR; Kendrew, J; Curwen, JO

> <Institution>
AstraZeneca

> <Link to Ligand in BindingDB>
http://www.bindingdb.org/bind/chemsearch/marvin/MolStructure.jsp?monomerid=4677

> <Link to Ligand-Target Pair in BindingDB>
http://www.bindingdb.org/jsp/dbsearch/PrimarySearch_ki.jsp?energyterm=kJ/mole&tag=r21&monomerid=4677&enzyme=Epidermal+growth+factor+receptor&column=ki&startPg=0&Increment=50&submit=Search

> <Ligand HET ID in PDB>


> <PDB ID(s) for Ligand-Target Complex>


> <PubChem CID>
5329050

> <PubChem SID>
8034334

> <ChEBI ID of Ligand>


> <ChEMBL ID of Ligand>


> <DrugBank ID of Ligand>


> <IUPHAR_GRAC ID of Ligand>


> <KEGG ID of Ligand>


> <ZINC ID of Ligand>
ZINC13472795

> <Number of Protein Chains in Target (>
1

> <BindingDB Target Chain Sequence>
MRPSGTAGAALLALLAALCPASRALEEKKVCQGTSNKLTQLGTFEDHFLSLQRMFNNCEVVLGNLEITYVQRNYDLSFLKTIQEVAGYVLIALNTVERIPLENLQIIRGNMYYENSYALAVLSNYDANKTGLKELPMRNLQEILHGAVRFSNNPALCNVESIQWRDIVSSDFLSNMSMDFQNHLGSCQKCDPSCPNGSCWGAGEENCQKLTKIICAQQCSGRCRGKSPSDCCHNQCAAGCTGPRESDCLVCRKFRDEATCKDTCPPLMLYNPTTYQMDVNPEGKYSFGATCVKKCPRNYVVTDHGSCVRACGADSYEMEEDGVRKCKKCEGPCRKVCNGIGIGEFKDSLSINATNIKHFKNCTSISGDLHILPVAFRGDSFTHTPPLDPQELDILKTVKEITGFLLIQAWPENRTDLHAFENLEIIRGRTKQHGQFSLAVVSLNITSLGLRSLKEISDGDVIISGNKNLCYANTINWKKLFGTSGQKTKIISNRGENSCKATGQVCHALCSPEGCWGPEPRDCVSCRNVSRGRECVDKCNLLEGEPREFVENSECIQCHPECLPQAMNITCTGRGPDNCIQCAHYIDGPHCVKTCPAGVMGENNTLVWKYADAGHVCHLCHPNCTYGCTGPGLEGCPTNGPKIPSIATGMVGALLLLLVVALGIGLFMRRRHIVRKRTLRRLLQERELVEPLTPSGEAPNQALLRILKETEFKKIKVLGSGAFGTVYKGLWIPEGEKVKIPVAIKELREATSPKANKEILDEAYVMASVDNPHVCRLLGICLTSTVQLITQLMPFGCLLDYVREHKDNIGSQYLLNWCVQIAKGMNYLEDRRLVHRDLAARNVLVKTPQHVKITDFGLAKLLGAEEKEYHAEGGKVPIKWMALESILHRIYTHQSDVWSYGVTVWELMTFGSKPYDGIPASEISSILEKGERLPQPPICTIDVYMIMVKCWMIDADSRPKFRELIIEFSKMARDPQRYLVIQGDERMHLPSPTDSNFYRALMDEEDMDDVVDADEYLIPQQGFFSSPSTSRTPLLSSLSATSNNSTVACIDRNGLQSCPIKEDSFLQRYSSDPTGALTEDSIDDTFLPVPEYINQSVPKRPAGSVQNPVYHNQPLNPAPSRDPHYQDPHSTAVGNPEYLNTVQPTCVNSTFDSPAHWAQKGSHQISLDNPDYQQDFFPKEAKPNGIFKGSTAENAEYLRVAPQSSEFIGA

> <PDB ID(s) of Target Chain>
1IVO,1M14,1M17,1MOX,1XKK,1Z9I,2GS2,2GS6,2ITW,2ITX,2ITY,2J5E,2J5F,2J6M,2RF9,2RGP,3B2V,3BEL,3GOP,3POZ,3QWQ,3VJO,3W2O,3W2P,3W2Q,3W2R,3W2S,3W32,3W33,4G5J,4I23,4JQ7,4JQ8,4JR3,4JRV,4KRO,4LI5,4RJ4,4RJ5,4RJ6,4RJ7,4RJ8,4TKS,4UIP,4UV7,4WKQ,4WRG,4ZAU,5C8K,5C8M,5C8N,5CAL,5CAN,5CAO,5CAP,5CAQ,5CAS,5CAU,5CAV,5EDP,5EDQ,5EDR,5EM5,5EM6,5EM7,5EM8,5FED,5GNK,5HCX,5HCY,5HCZ,5HIB,5HIC,5UGB,5WB7,5WB8,5Y25,6S89,6S8A

> <UniProt (SwissProt) Recommended Name of Target Chain>
Epidermal growth factor receptor

> <UniProt (SwissProt) Entry Name of Target Chain>
EGFR_HUMAN

> <UniProt (SwissProt) Primary ID of Target Chain>
P00533

> <UniProt (SwissProt) Secondary ID(s) of Target Chain>
O00688,O00732,P06268,Q14225,Q68GS5,Q92795,Q9BZS2,Q9GZX1,Q9H2C9,Q9H3C9,Q9UMD7,Q9UMD8,Q9UMG5

> <UniProt (SwissProt) Alternative ID(s) of Target Chain>


> <UniProt (TrEMBL) Submitted Name of Target Chain>


> <UniProt (TrEMBL) Entry Name of Target Chain>


> <UniProt (TrEMBL) Primary ID of Target Chain>


> <UniProt (TrEMBL) Secondary ID(s) of Target Chain>


> <UniProt (TrEMBL) Alternative ID(s) of Target Chain>


> <training label>
6.30103

> <i_lp_mmshare_version>
54117

> <s_epik_input>
RmMxW2NIXWMoQ2wpW2NIXWMoRiljMVtOSF1jKG5bY0hdbjIpYyhjMjMpW2NIXWMoT1tDSDNdKWMoW2NIXTMpT1tDSDJdW0NIXTRbQ0gyXVtDSDJdW05IXVtDSDJdW0NIMl00

> <s_epik_cmdline>
J2VwaWtfcHl0aG9uJywgJy1waHQnLCAnMC4xJywgJy1waCcsICc3LjQnLCAnLXRuJywgJzgnLCAnLW1hJywgJzIwMCcsICctaW1hZScsICc8aW5maWxlLm1hZT4nLCAnLW9tYWUnLCAnPG91dGZpbGUubWFlPic=

> <r_lp_tautomer_probability>
1

> <r_epik_Ionization_Penalty>
  0.0020

> <r_epik_Ionization_Penalty_Charging>
  0.0011

> <r_epik_Ionization_Penalty_Neutral>
  0.0009

> <r_epik_State_Penalty>
  0.0000

> <r_epik_Charging_Adjusted_Penalty>
0.00112254459668156

> <i_epik_Tot_Q>
1

> <i_epik_Tot_abs_Q>
1

> <i_f3d_flags>
0

> <s_lp_Force_Field>
OPLS_2005

> <r_lp_Energy>
29.552405

> <b_lp_Chiralities_Consistent>
1

> <s_lp_Variant>
4-Anilinoquinazoline-1

> <s_i_glide_gridfile>
struct_1_site_1

> <i_i_glide_lignum>
104

> <i_i_glide_rotatable_bonds>
6

> <r_i_docking_score>
-7.38126338944014

> <r_i_glide_ligand_efficiency>
-0.246042112981338

> <r_i_glide_ligand_efficiency_sa>
-0.764510050422435

> <r_i_glide_ligand_efficiency_ln>
-1.67710346738699

> <r_i_glide_gscore>
-7.38126338944014

> <r_i_glide_lipo>
-3.03281824208995

> <r_i_glide_hbond>
-0.32

> <r_i_glide_metal>
0

> <r_i_glide_rewards>
-1.82487436034984

> <r_i_glide_evdw>
-38.7841567993164

> <r_i_glide_ecoul>
-4.57940816879272

> <r_i_glide_erotb>
0.524459021689949

> <r_i_glide_esite>
-0.101910743405567

> <r_i_glide_emodel>
-44.9309525280533

> <r_i_glide_energy>
-43.3635649681091

> <r_i_glide_einternal>
4.90963888168335

> <i_i_glide_confnum>
124

> <i_i_glide_posenum>
160

> <r_i_glide_eff_state_penalty>
0

> <IC50 (nM)>
500

> <PMID>
11881999

> <Temp C>
25

> <r_glide_shape_similarity>
0.819115281105042

> <s_m_subgroup_title>
505 training

> <s_m_subgroupid>
pocket_pv

> <b_m_subgroup_collapsed>
0

$$$$
BindingDB_50189990_mol_1
                    3D
 Schrodinger Suite 2021-2.
 55 58  0  0  1  0            999 V2000
   21.8025   -1.9060   55.1495 N   0  0  0  0  0  0
   23.1010   -1.7519   55.4195 C   0  0  0  0  0  0
   23.9452   -0.9061   54.8336 N   0  0  0  0  0  0
   23.4426   -0.1009   53.8711 C   0  0  0  0  0  0
   21.2645   -1.1205   54.1860 C   0  0  0  0  0  0
   22.0758   -0.1760   53.5029 C   0  0  0  0  0  0
   21.5308    0.6242   52.4762 C   0  0  0  0  0  0
   20.1695    0.5092   52.1127 C   0  0  0  0  0  0
   19.3297   -0.3871   52.8220 C   0  0  0  0  0  0
   19.8942   -1.2078   53.8410 C   0  0  0  0  0  0
   17.9973   -0.4012   52.4406 O   0  0  0  0  0  0
   19.6102    1.2187   51.0677 O   0  0  0  0  0  0
   24.2887    0.8527   53.2756 N   0  0  0  0  0  0
   25.6856    0.9522   53.3396 C   0  0  0  0  0  0
   26.5126   -0.1998   53.3298 C   0  0  0  0  0  0
   27.9155   -0.0740   53.3850 C   0  0  0  0  0  0
   28.4942    1.2111   53.4603 C   0  0  0  0  0  0
   27.6793    2.3656   53.4304 C   0  0  0  0  0  0
   26.2767    2.2362   53.3704 C   0  0  0  0  0  0
   28.9103   -1.4941   53.3728 Cl  0  0  0  0  0  0
   17.0663   -1.1396   53.2208 C   0  0  0  0  0  0
   29.8367    1.3258   53.5819 F   0  0  0  0  0  0
   20.4488    2.0212   50.2263 C   0  0  0  0  0  0
   19.5687    3.0191   49.4526 C   0  0  1  0  0  0
   18.6939    2.3235   48.3893 C   0  0  0  0  0  0
   17.6633    3.2823   47.7454 C   0  0  0  0  0  0
   16.8335    3.9764   48.7803 N   0  3  1  0  0  0
   17.6804    4.7667   49.7227 C   0  0  0  0  0  0
   18.6974    3.8526   50.4422 C   0  0  0  0  0  0
   15.7333    4.7961   48.1945 C   0  0  0  0  0  0
   23.5217   -2.3977   56.1766 H   0  0  0  0  0  0
   22.1947    1.2853   51.9460 H   0  0  0  0  0  0
   19.2820   -1.9142   54.3826 H   0  0  0  0  0  0
   23.8177    1.6282   52.8303 H   0  0  0  0  0  0
   26.0749   -1.1845   53.2733 H   0  0  0  0  0  0
   28.1283    3.3465   53.4711 H   0  0  0  0  0  0
   25.6707    3.1327   53.3705 H   0  0  0  0  0  0
   16.0545   -0.9282   52.8787 H   0  0  0  0  0  0
   17.2394   -2.2100   53.1207 H   0  0  0  0  0  0
   17.1234   -0.8657   54.2748 H   0  0  0  0  0  0
   21.0261    1.3919   49.5511 H   0  0  0  0  0  0
   21.1428    2.6270   50.8067 H   0  0  0  0  0  0
   20.2242    3.7145   48.9270 H   0  0  0  0  0  0
   18.1685    1.4736   48.8293 H   0  0  0  0  0  0
   19.3394    1.9341   47.6000 H   0  0  0  0  0  0
   17.0143    2.7188   47.0735 H   0  0  0  0  0  0
   18.1761    4.0312   47.1372 H   0  0  0  0  0  0
   17.0485    5.2556   50.4676 H   0  0  0  0  0  0
   18.1983    5.5627   49.1822 H   0  0  0  0  0  0
   19.3416    4.4526   51.0875 H   0  0  0  0  0  0
   18.1399    3.1860   51.1023 H   0  0  0  0  0  0
   16.1295    5.6288   47.6101 H   0  0  0  0  0  0
   15.1031    4.1902   47.5435 H   0  0  0  0  0  0
   15.1014    5.2118   48.9812 H   0  0  0  0  0  0
   16.3886    3.2443   49.3329 H   0  0  0  0  0  0
  1  2  1  0  0  0
  1  5  2  0  0  0
  2  3  2  0  0  0
  2 31  1  0  0  0
  3  4  1  0  0  0
  4  6  2  0  0  0
  4 13  1  0  0  0
  5  6  1  0  0  0
  5 10  1  0  0  0
  6  7  1  0  0  0
  7  8  2  0  0  0
  7 32  1  0  0  0
  8  9  1  0  0  0
  8 12  1  0  0  0
  9 10  2  0  0  0
  9 11  1  0  0  0
 10 33  1  0  0  0
 11 21  1  0  0  0
 12 23  1  0  0  0
 13 14  1  0  0  0
 13 34  1  0  0  0
 14 15  1  0  0  0
 14 19  2  0  0  0
 15 16  2  0  0  0
 15 35  1  0  0  0
 16 17  1  0  0  0
 16 20  1  0  0  0
 17 18  2  0  0  0
 17 22  1  0  0  0
 18 19  1  0  0  0
 18 36  1  0  0  0
 19 37  1  0  0  0
 21 38  1  0  0  0
 21 39  1  0  0  0
 21 40  1  0  0  0
 23 24  1  0  0  0
 23 41  1  0  0  0
 23 42  1  0  0  0
 24 25  1  0  0  0
 24 29  1  0  0  0
 24 43  1  0  0  0
 25 26  1  0  0  0
 25 44  1  0  0  0
 25 45  1  0  0  0
 26 27  1  0  0  0
 26 46  1  0  0  0
 26 47  1  0  0  0
 27 28  1  0  0  0
 27 30  1  0  0  0
 27 55  1  0  0  0
 28 29  1  0  0  0
 28 48  1  0  0  0
 28 49  1  0  0  0
 29 50  1  0  0  0
 29 51  1  0  0  0
 30 52  1  0  0  0
 30 53  1  0  0  0
 30 54  1  0  0  0
M  CHG  1  27   1
M  END
> <s_m_entry_id>
336

> <s_m_entry_name>
pocket_pv.147

> <s_m_Source_Path>
/home/bortolaa/Project/GT/mario-master/docking/set505protein_struct_1_site_1_set505ligs_train

> <s_m_Source_File>
pocket_pv.maegz

> <i_m_Source_File_Index>
147

> <From>
www.bindingDB.org

> <BindingDB Reactant_set_id>
50351565

> <Ligand InChI>
InChI=1S/C22H24ClFN4O2/c1-28-7-5-14(6-8-28)12-30-21-10-16-19(11-20(21)29-2)25-13-26-22(16)27-15-3-4-18(24)17(23)9-15/h3-4,9-11,13-14H,5-8,12H2,1-2H3,(H,25,26,27)

> <Ligand InChI Key>
ZLQLCQDRTGSFPU-UHFFFAOYSA-N

> <BindingDB MonomerID>
50189990

> <BindingDB Ligand Name>
CHEMBL215786::N-(3-chloro-4-fluorophenyl)-7-methoxy-6-((1-methylpiperidin-4-yl)methoxy)quinazolin-4-amine

> <Target Name Assigned by Curator or DataSource>
Epidermal growth factor receptor

> <Target Source Organism According to Curator or DataSource>
Homo sapiens

> <Ki (nM)>


> <Kd (nM)>


> <EC50 (nM)>


> <kon (M-1-s-1)>


> <koff (s-1)>


> <pH>


> <Temp C>


> <Curation/DataSource>
ChEMBL

> <Article DOI>
10.1016/j.bmcl.2006.06.054

> <PubChem AID>


> <Patent Number>


> <Authors>
Ballard, P; Bradbury, RH; Harris, CS; Hennequin, LF; Hickinson, M; Kettle, JG; Kendrew, J; Klinowska, T; Ogilvie, DJ; Pearson, SE; Williams, EJ; Wilson, I

> <Institution>
AstraZeneca

> <Link to Ligand in BindingDB>
http://www.bindingdb.org/bind/chemsearch/marvin/MolStructure.jsp?monomerid=50189990

> <Link to Ligand-Target Pair in BindingDB>
http://www.bindingdb.org/jsp/dbsearch/PrimarySearch_ki.jsp?energyterm=kJ/mole&tag=r21&monomerid=50189990&enzyme=Epidermal+growth+factor+receptor&column=ki&startPg=0&Increment=50&submit=Search

> <Ligand HET ID in PDB>


> <PDB ID(s) for Ligand-Target Complex>


> <PubChem CID>
44416461

> <PubChem SID>
104073412

> <ChEBI ID of Ligand>


> <ChEMBL ID of Ligand>
CHEMBL215786

> <DrugBank ID of Ligand>


> <IUPHAR_GRAC ID of Ligand>


> <KEGG ID of Ligand>


> <ZINC ID of Ligand>
ZINC34800099

> <Number of Protein Chains in Target (>
1

> <BindingDB Target Chain Sequence>
MRPSGTAGAALLALLAALCPASRALEEKKVCQGTSNKLTQLGTFEDHFLSLQRMFNNCEVVLGNLEITYVQRNYDLSFLKTIQEVAGYVLIALNTVERIPLENLQIIRGNMYYENSYALAVLSNYDANKTGLKELPMRNLQEILHGAVRFSNNPALCNVESIQWRDIVSSDFLSNMSMDFQNHLGSCQKCDPSCPNGSCWGAGEENCQKLTKIICAQQCSGRCRGKSPSDCCHNQCAAGCTGPRESDCLVCRKFRDEATCKDTCPPLMLYNPTTYQMDVNPEGKYSFGATCVKKCPRNYVVTDHGSCVRACGADSYEMEEDGVRKCKKCEGPCRKVCNGIGIGEFKDSLSINATNIKHFKNCTSISGDLHILPVAFRGDSFTHTPPLDPQELDILKTVKEITGFLLIQAWPENRTDLHAFENLEIIRGRTKQHGQFSLAVVSLNITSLGLRSLKEISDGDVIISGNKNLCYANTINWKKLFGTSGQKTKIISNRGENSCKATGQVCHALCSPEGCWGPEPRDCVSCRNVSRGRECVDKCNLLEGEPREFVENSECIQCHPECLPQAMNITCTGRGPDNCIQCAHYIDGPHCVKTCPAGVMGENNTLVWKYADAGHVCHLCHPNCTYGCTGPGLEGCPTNGPKIPSIATGMVGALLLLLVVALGIGLFMRRRHIVRKRTLRRLLQERELVEPLTPSGEAPNQALLRILKETEFKKIKVLGSGAFGTVYKGLWIPEGEKVKIPVAIKELREATSPKANKEILDEAYVMASVDNPHVCRLLGICLTSTVQLITQLMPFGCLLDYVREHKDNIGSQYLLNWCVQIAKGMNYLEDRRLVHRDLAARNVLVKTPQHVKITDFGLAKLLGAEEKEYHAEGGKVPIKWMALESILHRIYTHQSDVWSYGVTVWELMTFGSKPYDGIPASEISSILEKGERLPQPPICTIDVYMIMVKCWMIDADSRPKFRELIIEFSKMARDPQRYLVIQGDERMHLPSPTDSNFYRALMDEEDMDDVVDADEYLIPQQGFFSSPSTSRTPLLSSLSATSNNSTVACIDRNGLQSCPIKEDSFLQRYSSDPTGALTEDSIDDTFLPVPEYINQSVPKRPAGSVQNPVYHNQPLNPAPSRDPHYQDPHSTAVGNPEYLNTVQPTCVNSTFDSPAHWAQKGSHQISLDNPDYQQDFFPKEAKPNGIFKGSTAENAEYLRVAPQSSEFIGA

> <PDB ID(s) of Target Chain>
1IVO,1M14,1M17,1MOX,1XKK,1Z9I,2GS2,2GS6,2ITW,2ITX,2ITY,2J5E,2J5F,2J6M,2RF9,2RGP,3B2V,3BEL,3GOP,3POZ,3QWQ,3VJO,3W2O,3W2P,3W2Q,3W2R,3W2S,3W32,3W33,4G5J,4I23,4JQ7,4JQ8,4JR3,4JRV,4KRO,4LI5,4RJ4,4RJ5,4RJ6,4RJ7,4RJ8,4TKS,4UIP,4UV7,4WKQ,4WRG,4ZAU,5C8K,5C8M,5C8N,5CAL,5CAN,5CAO,5CAP,5CAQ,5CAS,5CAU,5CAV,5EDP,5EDQ,5EDR,5EM5,5EM6,5EM7,5EM8,5FED,5GNK,5HCX,5HCY,5HCZ,5HIB,5HIC,5UGB,5WB7,5WB8,5Y25,6S89,6S8A

> <UniProt (SwissProt) Recommended Name of Target Chain>
Epidermal growth factor receptor

> <UniProt (SwissProt) Entry Name of Target Chain>
EGFR_HUMAN

> <UniProt (SwissProt) Primary ID of Target Chain>
P00533

> <UniProt (SwissProt) Secondary ID(s) of Target Chain>
O00688,O00732,P06268,Q14225,Q68GS5,Q92795,Q9BZS2,Q9GZX1,Q9H2C9,Q9H3C9,Q9UMD7,Q9UMD8,Q9UMG5

> <UniProt (SwissProt) Alternative ID(s) of Target Chain>


> <UniProt (TrEMBL) Submitted Name of Target Chain>


> <UniProt (TrEMBL) Entry Name of Target Chain>


> <UniProt (TrEMBL) Primary ID of Target Chain>


> <UniProt (TrEMBL) Secondary ID(s) of Target Chain>


> <UniProt (TrEMBL) Alternative ID(s) of Target Chain>


> <training label>
8.52288

> <i_lp_mmshare_version>
54117

> <s_epik_input>
W2NIXTFbY0hdYyhGKWMoQ2wpW2NIXWMxW05IXWMobltjSF1uMiljKGMyMylbY0hdYyhjKFtjSF0zKU9bQ0gzXSlPW0NIMl1bQ0hdNFtDSDJdW0NIMl1OKFtDSDNdKVtDSDJdW0NIMl00

> <s_epik_cmdline>
J2VwaWtfcHl0aG9uJywgJy1waHQnLCAnMC4xJywgJy1waCcsICc3LjQnLCAnLXRuJywgJzgnLCAnLW1hJywgJzIwMCcsICctaW1hZScsICc8aW5maWxlLm1hZT4nLCAnLW9tYWUnLCAnPG91dGZpbGUubWFlPic=

> <r_lp_tautomer_probability>
1

> <r_epik_Ionization_Penalty>
  0.0049

> <r_epik_Ionization_Penalty_Charging>
  0.0039

> <r_epik_Ionization_Penalty_Neutral>
  0.0010

> <r_epik_State_Penalty>
  0.0000

> <r_epik_Charging_Adjusted_Penalty>
0.0038691425947202

> <i_epik_Tot_Q>
1

> <i_epik_Tot_abs_Q>
1

> <i_f3d_flags>
0

> <s_lp_Force_Field>
OPLS_2005

> <r_lp_Energy>
30.53065

> <b_lp_Chiralities_Consistent>
1

> <s_lp_Variant>
BindingDB_50189990_mol_1-1

> <s_i_glide_gridfile>
struct_1_site_1

> <i_i_glide_lignum>
265

> <i_i_glide_rotatable_bonds>
6

> <r_i_docking_score>
-7.35381745782309

> <r_i_glide_ligand_efficiency>
-0.245127248594103

> <r_i_glide_ligand_efficiency_sa>
-0.761667354063103

> <r_i_glide_ligand_efficiency_ln>
-1.67086745267622

> <r_i_glide_gscore>
-7.35381745782309

> <r_i_glide_lipo>
-2.8914423512815

> <r_i_glide_hbond>
-0.32

> <r_i_glide_metal>
0

> <r_i_glide_rewards>
-1.60839522553403

> <r_i_glide_evdw>
-42.3341217041016

> <r_i_glide_ecoul>
-5.80771493911743

> <r_i_glide_erotb>
0.533216494566337

> <r_i_glide_esite>
-0.0793330495012131

> <r_i_glide_emodel>
-57.6650033608121

> <r_i_glide_energy>
-48.141836643219

> <r_i_glide_einternal>
4.83857297897339

> <i_i_glide_confnum>
95

> <i_i_glide_posenum>
156

> <r_i_glide_eff_state_penalty>
0

> <IC50 (nM)>
3

> <PMID>
16806916

> <r_glide_shape_similarity>
0.8413245677948

> <s_m_subgroup_title>
505 training

> <s_m_subgroupid>
pocket_pv

> <b_m_subgroup_collapsed>
0

$$$$
BindingDB_50117947
                    3D
 Schrodinger Suite 2021-2.
 51 54  0  0  1  0            999 V2000
   21.3973   -0.2199   53.3382 C   0  0  0  0  0  0
   27.9541   -1.2162   53.3029 N   0  0  0  0  0  0
   22.7330   -0.0531   53.7634 C   0  0  0  0  0  0
   28.1843    0.1500   53.4966 C   0  0  0  0  0  0
   20.6266   -1.2136   54.0006 C   0  0  0  0  0  0
   20.8426    0.5903   52.3106 C   0  0  0  0  0  0
   29.0630   -1.9388   53.4133 C   0  0  0  0  0  0
   23.3014   -0.8669   54.6820 N   0  0  0  0  0  0
   30.4779   -0.9730   53.7745 S   0  0  0  0  0  0
   29.4926    0.4531   53.7732 C   0  0  0  0  0  0
   19.2494   -1.3018   53.6533 C   0  0  0  0  0  0
   23.3705    1.1146   53.3378 N   0  0  0  0  0  0
   19.4860    0.4705   51.9453 C   0  0  0  0  0  0
   18.6796   -0.4645   52.6394 C   0  0  0  0  0  0
   27.0946    1.0614   53.2924 C   0  0  0  0  0  0
   21.2179   -2.0220   54.9323 N   0  0  0  0  0  0
   22.5133   -1.8006   55.2119 C   0  0  0  0  0  0
   24.7073    1.4581   53.1688 C   0  0  0  0  0  0
   25.7765    0.6241   53.5288 C   0  0  0  0  0  0
   18.8735    1.2458   50.9643 O   0  0  0  0  0  0
   17.3505   -0.4905   52.2439 O   0  0  0  0  0  0
   27.3589    2.3336   52.7427 C   0  0  0  0  0  0
   29.0840   -3.4105   53.2851 C   0  0  0  0  0  0
   26.2827    3.1310   52.3090 C   0  0  0  0  0  0
   24.9613    2.7039   52.5472 C   0  0  0  0  0  0
   16.3401   -0.8517   53.1838 C   0  0  0  0  0  0
   19.5953    2.2734   50.2738 C   0  0  0  0  0  0
   15.0996    0.0292   52.9490 C   0  0  0  0  0  0
   20.3855    1.6958   49.0952 C   0  0  0  0  0  0
   21.4644    1.2997   51.7885 H   0  0  0  0  0  0
   29.9515    1.4217   53.9312 H   0  0  0  0  0  0
   18.6384   -2.0258   54.1701 H   0  0  0  0  0  0
   22.7389    1.7745   52.9100 H   0  0  0  0  0  0
   22.9655   -2.4415   55.9556 H   0  0  0  0  0  0
   25.6078   -0.3537   53.9464 H   0  0  0  0  0  0
   28.3729    2.6602   52.5654 H   0  0  0  0  0  0
   28.2059   -3.8297   53.7614 H   0  0  0  0  0  0
   29.0783   -3.6618   52.2281 H   0  0  0  0  0  0
   29.9599   -3.8276   53.7742 H   0  0  0  0  0  0
   26.4673    4.0512   51.7772 H   0  0  0  0  0  0
   24.1485    3.3387   52.2264 H   0  0  0  0  0  0
   16.0879   -1.9055   53.0679 H   0  0  0  0  0  0
   16.6820   -0.7157   54.2059 H   0  0  0  0  0  0
   20.2335    2.8462   50.9422 H   0  0  0  0  0  0
   18.8651    2.9833   49.8860 H   0  0  0  0  0  0
   14.2804   -0.2873   53.5999 H   0  0  0  0  0  0
   15.3031    1.0803   53.1651 H   0  0  0  0  0  0
   14.7641   -0.0328   51.9121 H   0  0  0  0  0  0
   20.9158    2.4775   48.5530 H   0  0  0  0  0  0
   19.7138    1.2007   48.3995 H   0  0  0  0  0  0
   21.1090    0.9524   49.4195 H   0  0  0  0  0  0
  1  3  1  0  0  0
  1  5  1  0  0  0
  1  6  2  0  0  0
  2  4  1  0  0  0
  2  7  2  0  0  0
  3  8  2  0  0  0
  3 12  1  0  0  0
  4 10  2  0  0  0
  4 15  1  0  0  0
  5 11  2  0  0  0
  5 16  1  0  0  0
  6 13  1  0  0  0
  6 30  1  0  0  0
  7  9  1  0  0  0
  7 23  1  0  0  0
  8 17  1  0  0  0
  9 10  1  0  0  0
 10 31  1  0  0  0
 11 14  1  0  0  0
 11 32  1  0  0  0
 12 18  1  0  0  0
 12 33  1  0  0  0
 13 14  2  0  0  0
 13 20  1  0  0  0
 14 21  1  0  0  0
 15 19  1  0  0  0
 15 22  2  0  0  0
 16 17  2  0  0  0
 17 34  1  0  0  0
 18 19  2  0  0  0
 18 25  1  0  0  0
 19 35  1  0  0  0
 20 27  1  0  0  0
 21 26  1  0  0  0
 22 24  1  0  0  0
 22 36  1  0  0  0
 23 37  1  0  0  0
 23 38  1  0  0  0
 23 39  1  0  0  0
 24 25  2  0  0  0
 24 40  1  0  0  0
 25 41  1  0  0  0
 26 28  1  0  0  0
 26 42  1  0  0  0
 26 43  1  0  0  0
 27 29  1  0  0  0
 27 44  1  0  0  0
 27 45  1  0  0  0
 28 46  1  0  0  0
 28 47  1  0  0  0
 28 48  1  0  0  0
 29 49  1  0  0  0
 29 50  1  0  0  0
 29 51  1  0  0  0
M  END
> <s_m_entry_id>
337

> <s_m_entry_name>
pocket_pv.148

> <s_m_Source_Path>
/home/bortolaa/Project/GT/mario-master/docking/set505protein_struct_1_site_1_set505ligs_train

> <s_m_Source_File>
pocket_pv.maegz

> <i_m_Source_File_Index>
148

> <From>
www.bindingDB.org

> <BindingDB Reactant_set_id>
50213027

> <Ligand InChI>
InChI=1S/C22H22N4O2S/c1-4-27-20-10-17-18(11-21(20)28-5-2)23-13-24-22(17)26-16-8-6-7-15(9-16)19-12-29-14(3)25-19/h6-13H,4-5H2,1-3H3,(H,23,24,26)

> <Ligand InChI Key>
IMZBSZFOSHTOBQ-UHFFFAOYSA-N

> <BindingDB MonomerID>
50117947

> <BindingDB Ligand Name>
(6,7-Diethoxy-quinazolin-4-yl)-[3-(2-methyl-thiazol-4-yl)-phenyl]-amine::CHEMBL126456

> <Target Name Assigned by Curator or DataSource>
Epidermal growth factor receptor

> <Target Source Organism According to Curator or DataSource>
Homo sapiens

> <Ki (nM)>


> <IC50 (nM)>
4800

> <Kd (nM)>


> <EC50 (nM)>


> <kon (M-1-s-1)>


> <koff (s-1)>


> <pH>


> <Temp C>


> <Curation/DataSource>
ChEMBL

> <Article DOI>
10.1021/jm010496a

> <PubChem AID>


> <Patent Number>


> <Authors>
Wright, SW; Carlo, AA; Carty, MD; Danley, DE; Hageman, DL; Karam, GA; Levy, CB; Mansour, MN; Mathiowetz, AM; McClure, LD; Nestor, NB; McPherson, RK; Pandit, J; Pustilnik, LR; Schulte, GK; Soeller, WC; Treadway, JL; Wang, IK; Bauer, PH

> <Institution>
Pfizer Central Research

> <Link to Ligand in BindingDB>
http://www.bindingdb.org/bind/chemsearch/marvin/MolStructure.jsp?monomerid=50117947

> <Link to Ligand-Target Pair in BindingDB>
http://www.bindingdb.org/jsp/dbsearch/PrimarySearch_ki.jsp?energyterm=kJ/mole&tag=r21&monomerid=50117947&enzyme=Epidermal+growth+factor+receptor&column=ki&startPg=0&Increment=50&submit=Search

> <Ligand HET ID in PDB>


> <PDB ID(s) for Ligand-Target Complex>


> <PubChem CID>
10136035

> <PubChem SID>
104011351

> <ChEBI ID of Ligand>


> <ChEMBL ID of Ligand>
CHEMBL126456

> <DrugBank ID of Ligand>


> <IUPHAR_GRAC ID of Ligand>


> <KEGG ID of Ligand>


> <ZINC ID of Ligand>
ZINC13490770

> <Number of Protein Chains in Target (>
1

> <BindingDB Target Chain Sequence>
MRPSGTAGAALLALLAALCPASRALEEKKVCQGTSNKLTQLGTFEDHFLSLQRMFNNCEVVLGNLEITYVQRNYDLSFLKTIQEVAGYVLIALNTVERIPLENLQIIRGNMYYENSYALAVLSNYDANKTGLKELPMRNLQEILHGAVRFSNNPALCNVESIQWRDIVSSDFLSNMSMDFQNHLGSCQKCDPSCPNGSCWGAGEENCQKLTKIICAQQCSGRCRGKSPSDCCHNQCAAGCTGPRESDCLVCRKFRDEATCKDTCPPLMLYNPTTYQMDVNPEGKYSFGATCVKKCPRNYVVTDHGSCVRACGADSYEMEEDGVRKCKKCEGPCRKVCNGIGIGEFKDSLSINATNIKHFKNCTSISGDLHILPVAFRGDSFTHTPPLDPQELDILKTVKEITGFLLIQAWPENRTDLHAFENLEIIRGRTKQHGQFSLAVVSLNITSLGLRSLKEISDGDVIISGNKNLCYANTINWKKLFGTSGQKTKIISNRGENSCKATGQVCHALCSPEGCWGPEPRDCVSCRNVSRGRECVDKCNLLEGEPREFVENSECIQCHPECLPQAMNITCTGRGPDNCIQCAHYIDGPHCVKTCPAGVMGENNTLVWKYADAGHVCHLCHPNCTYGCTGPGLEGCPTNGPKIPSIATGMVGALLLLLVVALGIGLFMRRRHIVRKRTLRRLLQERELVEPLTPSGEAPNQALLRILKETEFKKIKVLGSGAFGTVYKGLWIPEGEKVKIPVAIKELREATSPKANKEILDEAYVMASVDNPHVCRLLGICLTSTVQLITQLMPFGCLLDYVREHKDNIGSQYLLNWCVQIAKGMNYLEDRRLVHRDLAARNVLVKTPQHVKITDFGLAKLLGAEEKEYHAEGGKVPIKWMALESILHRIYTHQSDVWSYGVTVWELMTFGSKPYDGIPASEISSILEKGERLPQPPICTIDVYMIMVKCWMIDADSRPKFRELIIEFSKMARDPQRYLVIQGDERMHLPSPTDSNFYRALMDEEDMDDVVDADEYLIPQQGFFSSPSTSRTPLLSSLSATSNNSTVACIDRNGLQSCPIKEDSFLQRYSSDPTGALTEDSIDDTFLPVPEYINQSVPKRPAGSVQNPVYHNQPLNPAPSRDPHYQDPHSTAVGNPEYLNTVQPTCVNSTFDSPAHWAQKGSHQISLDNPDYQQDFFPKEAKPNGIFKGSTAENAEYLRVAPQSSEFIGA

> <PDB ID(s) of Target Chain>
1IVO,1M14,1M17,1MOX,1XKK,1Z9I,2GS2,2GS6,2ITW,2ITX,2ITY,2J5E,2J5F,2J6M,2RF9,2RGP,3B2V,3BEL,3GOP,3POZ,3QWQ,3VJO,3W2O,3W2P,3W2Q,3W2R,3W2S,3W32,3W33,4G5J,4I23,4JQ7,4JQ8,4JR3,4JRV,4KRO,4LI5,4RJ4,4RJ5,4RJ6,4RJ7,4RJ8,4TKS,4UIP,4UV7,4WKQ,4WRG,4ZAU,5C8K,5C8M,5C8N,5CAL,5CAN,5CAO,5CAP,5CAQ,5CAS,5CAU,5CAV,5EDP,5EDQ,5EDR,5EM5,5EM6,5EM7,5EM8,5FED,5GNK,5HCX,5HCY,5HCZ,5HIB,5HIC,5UGB,5WB7,5WB8,5Y25,6S89,6S8A

> <UniProt (SwissProt) Recommended Name of Target Chain>
Epidermal growth factor receptor

> <UniProt (SwissProt) Entry Name of Target Chain>
EGFR_HUMAN

> <UniProt (SwissProt) Primary ID of Target Chain>
P00533

> <UniProt (SwissProt) Secondary ID(s) of Target Chain>
O00688,O00732,P06268,Q14225,Q68GS5,Q92795,Q9BZS2,Q9GZX1,Q9H2C9,Q9H3C9,Q9UMD7,Q9UMD8,Q9UMG5

> <UniProt (SwissProt) Alternative ID(s) of Target Chain>


> <UniProt (TrEMBL) Submitted Name of Target Chain>


> <UniProt (TrEMBL) Entry Name of Target Chain>


> <UniProt (TrEMBL) Primary ID of Target Chain>


> <UniProt (TrEMBL) Secondary ID(s) of Target Chain>


> <UniProt (TrEMBL) Alternative ID(s) of Target Chain>


> <training label>
5.31876

> <i_lp_mmshare_version>
54117

> <s_epik_input>
W0NIM11bQ0gyXU9jKFtjSF0xKWMoT1tDSDJdW0NIM10pW2NIXWMoYzEyKW5bY0hdbmMyW05IXWMoW2NIXVtjSF1bY0hdMylbY0hdYzMtYzRuYyhbQ0gzXSlzW2NIXTQ=

> <s_epik_cmdline>
J2VwaWtfcHl0aG9uJywgJy1waHQnLCAnMC4xJywgJy1waCcsICc3LjQnLCAnLXRuJywgJzgnLCAnLW1hJywgJzIwMCcsICctaW1hZScsICc8aW5maWxlLm1hZT4nLCAnLW9tYWUnLCAnPG91dGZpbGUubWFlPic=

> <r_lp_tautomer_probability>
1

> <r_epik_Ionization_Penalty>
  0.0005

> <r_epik_Ionization_Penalty_Charging>
  0.0000

> <r_epik_Ionization_Penalty_Neutral>
  0.0005

> <r_epik_State_Penalty>
  0.0000

> <r_epik_Charging_Adjusted_Penalty>
0

> <i_epik_Tot_Q>
0

> <i_epik_Tot_abs_Q>
0

> <i_f3d_flags>
0

> <s_lp_Force_Field>
OPLS_2005

> <r_lp_Energy>
20.528593

> <b_lp_Chiralities_Consistent>
1

> <s_lp_Variant>
BindingDB_50117947-1

> <s_i_glide_gridfile>
struct_1_site_1

> <i_i_glide_lignum>
38

> <i_i_glide_rotatable_bonds>
7

> <r_i_docking_score>
-7.34615846792388

> <r_i_glide_ligand_efficiency>
-0.253315809238754

> <r_i_glide_ligand_efficiency_sa>
-0.7782664220629

> <r_i_glide_ligand_efficiency_ln>
-1.68208400664872

> <r_i_glide_gscore>
-7.34615846792388

> <r_i_glide_lipo>
-3.32337603599115

> <r_i_glide_hbond>
-0.32

> <r_i_glide_metal>
0

> <r_i_glide_rewards>
-1.32047407459324

> <r_i_glide_evdw>
-42.7412338256836

> <r_i_glide_ecoul>
-5.60142421722412

> <r_i_glide_erotb>
0.594966966528311

> <r_i_glide_esite>
0

> <r_i_glide_emodel>
-49.8880100782013

> <r_i_glide_energy>
-48.3426580429077

> <r_i_glide_einternal>
7.29941463470459

> <i_i_glide_confnum>
38

> <i_i_glide_posenum>
2

> <r_i_glide_eff_state_penalty>
0

> <PMID>
12190310

> <r_glide_shape_similarity>
0.81601095199585

> <s_m_subgroup_title>
505 training

> <s_m_subgroupid>
pocket_pv

> <b_m_subgroup_collapsed>
0

$$$$
BindingDB_50102087_mol_1
                    3D
 Schrodinger Suite 2021-2.
 61 63  0  0  1  0            999 V2000
   22.0722   -0.1695   53.5049 C   0  0  0  0  0  0
   23.4385   -0.0982   53.8720 C   0  0  0  0  0  0
   21.2666   -1.1199   54.1867 C   0  0  0  0  0  0
   21.5166    0.6467   52.4932 C   0  0  0  0  0  0
   23.9422   -0.9018   54.8345 N   0  0  0  0  0  0
   19.8981   -1.2119   53.8467 C   0  0  0  0  0  0
   24.2875    0.8526   53.2787 N   0  0  0  0  0  0
   20.1581    0.5135   52.1352 C   0  0  0  0  0  0
   19.3264   -0.3907   52.8376 C   0  0  0  0  0  0
   27.9138   -0.0716   53.3841 C   0  0  0  0  0  0
   21.8006   -1.9055   55.1482 N   0  0  0  0  0  0
   26.5116   -0.2006   53.3273 C   0  0  0  0  0  0
   23.0980   -1.7493   55.4194 C   0  0  0  0  0  0
   25.6840    0.9486   53.3400 C   0  0  0  0  0  0
   28.4911    1.2129   53.4612 C   0  0  0  0  0  0
   27.6760    2.3659   53.4311 C   0  0  0  0  0  0
   28.9125   -1.4875   53.3742 Cl  0  0  0  0  0  0
   26.2738    2.2320   53.3684 C   0  0  0  0  0  0
   19.6009    1.2277   51.1027 O   0  0  0  0  0  0
   29.8325    1.3288   53.5852 F   0  0  0  0  0  0
   18.9030    3.2532   48.9372 N   0  0  0  0  0  0
   17.9932   -0.4122   52.4632 O   0  0  0  0  0  0
   20.4117    1.4852   49.9555 C   0  0  0  0  0  0
   20.5143    3.5398   46.1475 O   0  0  0  0  0  0
   16.6507    4.3489   51.7256 O   0  0  0  0  0  0
   19.5270    1.9328   48.7736 C   0  0  0  0  0  0
   18.5642    3.8797   47.6465 C   0  0  0  0  0  0
   17.7064    3.2024   49.8016 C   0  0  0  0  0  0
   17.4037    4.5429   50.5211 C   0  0  0  0  0  0
   19.7564    4.5105   46.8759 C   0  0  0  0  0  0
   17.0709   -1.1549   53.2461 C   0  0  0  0  0  0
   21.6118    4.0992   45.4273 C   0  0  0  0  0  0
   15.2429    4.2337   51.5165 C   0  0  0  0  0  0
   22.1332    1.3549   51.9620 H   0  0  0  0  0  0
   19.2911   -1.9217   54.3878 H   0  0  0  0  0  0
   23.8212    1.6273   52.8314 H   0  0  0  0  0  0
   26.0762   -1.1881   53.2763 H   0  0  0  0  0  0
   23.5139   -2.3952   56.1790 H   0  0  0  0  0  0
   28.1246    3.3474   53.4793 H   0  0  0  0  0  0
   25.6647    3.1252   53.3644 H   0  0  0  0  0  0
   20.9501    0.5775   49.6734 H   0  0  0  0  0  0
   21.1495    2.2597   50.1746 H   0  0  0  0  0  0
   18.7594    1.1837   48.5762 H   0  0  0  0  0  0
   20.1737    1.9354   47.8999 H   0  0  0  0  0  0
   17.8686    4.7019   47.8300 H   0  0  0  0  0  0
   18.0266    3.1740   47.0079 H   0  0  0  0  0  0
   16.8386    2.8657   49.2347 H   0  0  0  0  0  0
   17.8211    2.4686   50.5901 H   0  0  0  0  0  0
   18.3489    4.9950   50.8209 H   0  0  0  0  0  0
   16.9205    5.2582   49.8530 H   0  0  0  0  0  0
   20.3986    5.0562   47.5705 H   0  0  0  0  0  0
   19.3665    5.2400   46.1660 H   0  0  0  0  0  0
   16.0592   -0.9711   52.8869 H   0  0  0  0  0  0
   17.2620   -2.2254   53.1645 H   0  0  0  0  0  0
   17.1089   -0.8605   54.2939 H   0  0  0  0  0  0
   22.1522    3.3072   44.9084 H   0  0  0  0  0  0
   22.3142    4.5952   46.0981 H   0  0  0  0  0  0
   21.2666    4.8171   44.6827 H   0  0  0  0  0  0
   14.7420    4.1166   52.4782 H   0  0  0  0  0  0
   14.8427    5.1291   51.0378 H   0  0  0  0  0  0
   15.0020    3.3663   50.8997 H   0  0  0  0  0  0
  1  2  2  0  0  0
  1  3  1  0  0  0
  1  4  1  0  0  0
  2  5  1  0  0  0
  2  7  1  0  0  0
  3  6  1  0  0  0
  3 11  2  0  0  0
  4  8  2  0  0  0
  4 34  1  0  0  0
  5 13  2  0  0  0
  6  9  2  0  0  0
  6 35  1  0  0  0
  7 14  1  0  0  0
  7 36  1  0  0  0
  8  9  1  0  0  0
  8 19  1  0  0  0
  9 22  1  0  0  0
 10 12  2  0  0  0
 10 15  1  0  0  0
 10 17  1  0  0  0
 11 13  1  0  0  0
 12 14  1  0  0  0
 12 37  1  0  0  0
 13 38  1  0  0  0
 14 18  2  0  0  0
 15 16  2  0  0  0
 15 20  1  0  0  0
 16 18  1  0  0  0
 16 39  1  0  0  0
 18 40  1  0  0  0
 19 23  1  0  0  0
 21 26  1  0  0  0
 21 27  1  0  0  0
 21 28  1  0  0  0
 22 31  1  0  0  0
 23 26  1  0  0  0
 23 41  1  0  0  0
 23 42  1  0  0  0
 24 30  1  0  0  0
 24 32  1  0  0  0
 25 29  1  0  0  0
 25 33  1  0  0  0
 26 43  1  0  0  0
 26 44  1  0  0  0
 27 30  1  0  0  0
 27 45  1  0  0  0
 27 46  1  0  0  0
 28 29  1  0  0  0
 28 47  1  0  0  0
 28 48  1  0  0  0
 29 49  1  0  0  0
 29 50  1  0  0  0
 30 51  1  0  0  0
 30 52  1  0  0  0
 31 53  1  0  0  0
 31 54  1  0  0  0
 31 55  1  0  0  0
 32 56  1  0  0  0
 32 57  1  0  0  0
 32 58  1  0  0  0
 33 59  1  0  0  0
 33 60  1  0  0  0
 33 61  1  0  0  0
M  END
> <s_m_entry_id>
338

> <s_m_entry_name>
pocket_pv.149

> <s_m_Source_Path>
/home/bortolaa/Project/GT/mario-master/docking/set505protein_struct_1_site_1_set505ligs_train

> <s_m_Source_File>
pocket_pv.maegz

> <i_m_Source_File_Index>
149

> <From>
www.bindingDB.org

> <BindingDB Reactant_set_id>
50733034

> <Ligand InChI>
InChI=1S/C23H28ClFN4O4/c1-30-9-6-29(7-10-31-2)8-11-33-22-13-17-20(14-21(22)32-3)26-15-27-23(17)28-16-4-5-19(25)18(24)12-16/h4-5,12-15H,6-11H2,1-3H3,(H,26,27,28)

> <Ligand InChI Key>
WFOGDVXKFPKAIQ-UHFFFAOYSA-N

> <BindingDB MonomerID>
50102087

> <BindingDB Ligand Name>
(6-{2-[Bis-(2-methoxy-ethyl)-amino]-ethoxy}-7-methoxy-quinazolin-4-yl)-(3-chloro-4-fluoro-phenyl)-amine::CHEMBL294395

> <Target Name Assigned by Curator or DataSource>
Epidermal growth factor receptor

> <Target Source Organism According to Curator or DataSource>
Homo sapiens

> <Ki (nM)>


> <Kd (nM)>


> <EC50 (nM)>


> <kon (M-1-s-1)>


> <koff (s-1)>


> <pH>


> <Temp C>


> <Curation/DataSource>
ChEMBL

> <Article DOI>
10.1016/s0960-894x(01)00344-4

> <PubChem AID>


> <Patent Number>


> <Authors>
Barker, AJ; Gibson, KH; Grundy, W; Godfrey, AA; Barlow, JJ; Healy, MP; Woodburn, JR; Ashton, SE; Curry, BJ; Scarlett, L; Henthorn, L; Richards, L

> <Institution>
AstraZeneca

> <Link to Ligand in BindingDB>
http://www.bindingdb.org/bind/chemsearch/marvin/MolStructure.jsp?monomerid=50102087

> <Link to Ligand-Target Pair in BindingDB>
http://www.bindingdb.org/jsp/dbsearch/PrimarySearch_ki.jsp?energyterm=kJ/mole&tag=r21&monomerid=50102087&enzyme=Epidermal+growth+factor+receptor&column=ki&startPg=0&Increment=50&submit=Search

> <Ligand HET ID in PDB>


> <PDB ID(s) for Ligand-Target Complex>


> <PubChem CID>
19077504

> <PubChem SID>
103998644

> <ChEBI ID of Ligand>


> <ChEMBL ID of Ligand>
CHEMBL294395

> <DrugBank ID of Ligand>


> <IUPHAR_GRAC ID of Ligand>


> <KEGG ID of Ligand>


> <ZINC ID of Ligand>
ZINC29564152

> <Number of Protein Chains in Target (>
1

> <BindingDB Target Chain Sequence>
MRPSGTAGAALLALLAALCPASRALEEKKVCQGTSNKLTQLGTFEDHFLSLQRMFNNCEVVLGNLEITYVQRNYDLSFLKTIQEVAGYVLIALNTVERIPLENLQIIRGNMYYENSYALAVLSNYDANKTGLKELPMRNLQEILHGAVRFSNNPALCNVESIQWRDIVSSDFLSNMSMDFQNHLGSCQKCDPSCPNGSCWGAGEENCQKLTKIICAQQCSGRCRGKSPSDCCHNQCAAGCTGPRESDCLVCRKFRDEATCKDTCPPLMLYNPTTYQMDVNPEGKYSFGATCVKKCPRNYVVTDHGSCVRACGADSYEMEEDGVRKCKKCEGPCRKVCNGIGIGEFKDSLSINATNIKHFKNCTSISGDLHILPVAFRGDSFTHTPPLDPQELDILKTVKEITGFLLIQAWPENRTDLHAFENLEIIRGRTKQHGQFSLAVVSLNITSLGLRSLKEISDGDVIISGNKNLCYANTINWKKLFGTSGQKTKIISNRGENSCKATGQVCHALCSPEGCWGPEPRDCVSCRNVSRGRECVDKCNLLEGEPREFVENSECIQCHPECLPQAMNITCTGRGPDNCIQCAHYIDGPHCVKTCPAGVMGENNTLVWKYADAGHVCHLCHPNCTYGCTGPGLEGCPTNGPKIPSIATGMVGALLLLLVVALGIGLFMRRRHIVRKRTLRRLLQERELVEPLTPSGEAPNQALLRILKETEFKKIKVLGSGAFGTVYKGLWIPEGEKVKIPVAIKELREATSPKANKEILDEAYVMASVDNPHVCRLLGICLTSTVQLITQLMPFGCLLDYVREHKDNIGSQYLLNWCVQIAKGMNYLEDRRLVHRDLAARNVLVKTPQHVKITDFGLAKLLGAEEKEYHAEGGKVPIKWMALESILHRIYTHQSDVWSYGVTVWELMTFGSKPYDGIPASEISSILEKGERLPQPPICTIDVYMIMVKCWMIDADSRPKFRELIIEFSKMARDPQRYLVIQGDERMHLPSPTDSNFYRALMDEEDMDDVVDADEYLIPQQGFFSSPSTSRTPLLSSLSATSNNSTVACIDRNGLQSCPIKEDSFLQRYSSDPTGALTEDSIDDTFLPVPEYINQSVPKRPAGSVQNPVYHNQPLNPAPSRDPHYQDPHSTAVGNPEYLNTVQPTCVNSTFDSPAHWAQKGSHQISLDNPDYQQDFFPKEAKPNGIFKGSTAENAEYLRVAPQSSEFIGA

> <PDB ID(s) of Target Chain>
1IVO,1M14,1M17,1MOX,1XKK,1Z9I,2GS2,2GS6,2ITW,2ITX,2ITY,2J5E,2J5F,2J6M,2RF9,2RGP,3B2V,3BEL,3GOP,3POZ,3QWQ,3VJO,3W2O,3W2P,3W2Q,3W2R,3W2S,3W32,3W33,4G5J,4I23,4JQ7,4JQ8,4JR3,4JRV,4KRO,4LI5,4RJ4,4RJ5,4RJ6,4RJ7,4RJ8,4TKS,4UIP,4UV7,4WKQ,4WRG,4ZAU,5C8K,5C8M,5C8N,5CAL,5CAN,5CAO,5CAP,5CAQ,5CAS,5CAU,5CAV,5EDP,5EDQ,5EDR,5EM5,5EM6,5EM7,5EM8,5FED,5GNK,5HCX,5HCY,5HCZ,5HIB,5HIC,5UGB,5WB7,5WB8,5Y25,6S89,6S8A

> <UniProt (SwissProt) Recommended Name of Target Chain>
Epidermal growth factor receptor

> <UniProt (SwissProt) Entry Name of Target Chain>
EGFR_HUMAN

> <UniProt (SwissProt) Primary ID of Target Chain>
P00533

> <UniProt (SwissProt) Secondary ID(s) of Target Chain>
O00688,O00732,P06268,Q14225,Q68GS5,Q92795,Q9BZS2,Q9GZX1,Q9H2C9,Q9H3C9,Q9UMD7,Q9UMD8,Q9UMG5

> <UniProt (SwissProt) Alternative ID(s) of Target Chain>


> <UniProt (TrEMBL) Submitted Name of Target Chain>


> <UniProt (TrEMBL) Entry Name of Target Chain>


> <UniProt (TrEMBL) Primary ID of Target Chain>


> <UniProt (TrEMBL) Secondary ID(s) of Target Chain>


> <UniProt (TrEMBL) Alternative ID(s) of Target Chain>


> <training label>
7.21467

> <i_lp_mmshare_version>
54117

> <s_epik_input>
RmMxW2NIXVtjSF1jKFtjSF1jMUNsKVtOSF1jMm5bY0hdbmMoYzIzKVtjSF1jKE9bQ0gzXSljKFtjSF0zKU9bQ0gyXVtDSDJdTihbQ0gyXVtDSDJdT1tDSDNdKVtDSDJdW0NIMl1PW0NIM10=

> <s_epik_cmdline>
J2VwaWtfcHl0aG9uJywgJy1waHQnLCAnMC4xJywgJy1waCcsICc3LjQnLCAnLXRuJywgJzgnLCAnLW1hJywgJzIwMCcsICctaW1hZScsICc8aW5maWxlLm1hZT4nLCAnLW9tYWUnLCAnPG91dGZpbGUubWFlPic=

> <r_lp_tautomer_probability>
0.999978000241998

> <r_epik_Ionization_Penalty>
  0.0981

> <r_epik_Ionization_Penalty_Charging>
  0.0000

> <r_epik_Ionization_Penalty_Neutral>
  0.0981

> <r_epik_State_Penalty>
  0.0877

> <r_epik_Charging_Adjusted_Penalty>
0.08770576098268

> <i_epik_Tot_Q>
0

> <i_epik_Tot_abs_Q>
0

> <i_f3d_flags>
0

> <s_lp_Force_Field>
OPLS_2005

> <r_lp_Energy>
41.095316

> <b_lp_Chiralities_Consistent>
1

> <s_lp_Variant>
BindingDB_50102087_mol_1-1

> <s_i_glide_gridfile>
struct_1_site_1

> <i_i_glide_lignum>
182

> <i_i_glide_rotatable_bonds>
13

> <r_i_docking_score>
-7.33647594829957

> <r_i_glide_ligand_efficiency>
-0.222317452978775

> <r_i_glide_ligand_efficiency_sa>
-0.713090861755544

> <r_i_glide_ligand_efficiency_ln>
-1.63159426466234

> <r_i_glide_gscore>
-7.42417594829957

> <r_i_glide_lipo>
-3.04580468889111

> <r_i_glide_hbond>
-0.541535229175212

> <r_i_glide_metal>
0

> <r_i_glide_rewards>
-1.28918400826347

> <r_i_glide_evdw>
-47.4257431030273

> <r_i_glide_ecoul>
-6.62576913833618

> <r_i_glide_erotb>
0.883578048089667

> <r_i_glide_esite>
-0.0660775441576542

> <r_i_glide_emodel>
-58.444166250278

> <r_i_glide_energy>
-54.0515122413635

> <r_i_glide_einternal>
7.1227765083313

> <i_i_glide_confnum>
742

> <i_i_glide_posenum>
399

> <r_i_glide_eff_state_penalty>
0.0877

> <IC50 (nM)>
61

> <PMID>
11459659

> <r_glide_shape_similarity>
0.804983139038086

> <s_m_subgroup_title>
505 training

> <s_m_subgroupid>
pocket_pv

> <b_m_subgroup_collapsed>
0

$$$$
BindingDB_50308832_mol_1
                    3D
 Schrodinger Suite 2021-2.
 38 40  0  0  1  0            999 V2000
   20.1621    0.5171   52.1549 C   0  0  0  0  0  0
   19.3433   -0.3909   52.8414 C   0  0  0  0  0  0
   19.9105   -1.2109   53.8411 C   0  0  0  0  0  0
   21.5174    0.6424   52.5064 C   0  0  0  0  0  0
   22.0749   -0.1705   53.5080 C   0  0  0  0  0  0
   21.2718   -1.1140   54.1821 C   0  0  0  0  0  0
   21.8033   -1.8955   55.1394 N   0  0  0  0  0  0
   23.0945   -1.7395   55.4101 C   0  0  0  0  0  0
   23.9366   -0.8997   54.8239 N   0  0  0  0  0  0
   23.4368   -0.0988   53.8687 C   0  0  0  0  0  0
   24.2856    0.8489   53.2777 N   0  0  0  0  0  0
   25.6784    0.9481   53.3420 C   0  0  0  0  0  0
   26.5022   -0.1932   53.3314 C   0  0  0  0  0  0
   27.8937   -0.0648   53.3878 C   0  0  0  0  0  0
   28.4679    1.2051   53.4566 C   0  0  0  0  0  0
   27.6634    2.3514   53.4277 C   0  0  0  0  0  0
   26.2679    2.2238   53.3692 C   0  0  0  0  0  0
   28.8873   -1.4670   53.3753 Cl  0  0  0  0  0  0
   19.5707    1.2604   51.1715 O   0  0  0  0  0  0
   20.3873    1.7809   50.1454 C   0  0  0  0  0  0
   19.4955    2.3651   49.1488 C   0  0  0  0  0  0
   18.0220   -0.4082   52.4614 O   0  0  0  0  0  0
   17.1127   -1.1819   53.2119 C   0  0  0  0  0  0
   18.6916    2.8247   48.3567 C   0  0  0  0  0  0
   29.8019    1.3128   53.5698 F   0  0  0  0  0  0
   19.3064   -1.9243   54.3792 H   0  0  0  0  0  0
   22.1373    1.3598   51.9939 H   0  0  0  0  0  0
   23.5063   -2.3816   56.1750 H   0  0  0  0  0  0
   23.8192    1.6248   52.8377 H   0  0  0  0  0  0
   26.0697   -1.1820   53.2756 H   0  0  0  0  0  0
   28.1144    3.3321   53.4698 H   0  0  0  0  0  0
   25.6588    3.1174   53.3645 H   0  0  0  0  0  0
   20.9918    1.0040   49.6705 H   0  0  0  0  0  0
   21.0394    2.5756   50.5165 H   0  0  0  0  0  0
   16.1093   -1.0452   52.8129 H   0  0  0  0  0  0
   17.3493   -2.2468   53.1576 H   0  0  0  0  0  0
   17.0998   -0.8722   54.2578 H   0  0  0  0  0  0
   17.9840    3.2108   47.6595 H   0  0  0  0  0  0
  1  2  2  0  0  0
  1  4  1  0  0  0
  1 19  1  0  0  0
  2  3  1  0  0  0
  2 22  1  0  0  0
  3  6  2  0  0  0
  3 26  1  0  0  0
  4  5  2  0  0  0
  4 27  1  0  0  0
  5  6  1  0  0  0
  5 10  1  0  0  0
  6  7  1  0  0  0
  7  8  2  0  0  0
  8  9  1  0  0  0
  8 28  1  0  0  0
  9 10  2  0  0  0
 10 11  1  0  0  0
 11 12  1  0  0  0
 11 29  1  0  0  0
 12 13  2  0  0  0
 12 17  1  0  0  0
 13 14  1  0  0  0
 13 30  1  0  0  0
 14 15  2  0  0  0
 14 18  1  0  0  0
 15 16  1  0  0  0
 15 25  1  0  0  0
 16 17  2  0  0  0
 16 31  1  0  0  0
 17 32  1  0  0  0
 19 20  1  0  0  0
 20 21  1  0  0  0
 20 33  1  0  0  0
 20 34  1  0  0  0
 21 24  3  0  0  0
 22 23  1  0  0  0
 23 35  1  0  0  0
 23 36  1  0  0  0
 23 37  1  0  0  0
 24 38  1  0  0  0
M  END
> <s_m_entry_id>
339

> <s_m_entry_name>
pocket_pv.150

> <s_m_Source_Path>
/home/bortolaa/Project/GT/mario-master/docking/set505protein_struct_1_site_1_set505ligs_train

> <s_m_Source_File>
pocket_pv.maegz

> <i_m_Source_File_Index>
150

> <From>
www.bindingDB.org

> <BindingDB Reactant_set_id>
50554735

> <Ligand InChI>
InChI=1S/C18H13ClFN3O2/c1-3-6-25-17-8-12-15(9-16(17)24-2)21-10-22-18(12)23-11-4-5-14(20)13(19)7-11/h1,4-5,7-10H,6H2,2H3,(H,21,22,23)

> <Ligand InChI Key>
QCPPIWXNTVLCAK-UHFFFAOYSA-N

> <BindingDB MonomerID>
50308832

> <BindingDB Ligand Name>
4-(3'-Chloro-4'-fluoroanilino)-6-(prop-2-ynyloxy)-7-methoxyquinazoline::CHEMBL597949

> <Target Name Assigned by Curator or DataSource>
Epidermal growth factor receptor

> <Target Source Organism According to Curator or DataSource>
Homo sapiens

> <Ki (nM)>


> <Kd (nM)>


> <EC50 (nM)>


> <kon (M-1-s-1)>


> <koff (s-1)>


> <pH>


> <Temp C>


> <Curation/DataSource>
ChEMBL

> <Article DOI>
10.1016/j.bmc.2009.11.035

> <PubChem AID>


> <Patent Number>


> <Authors>
Ban, HS; Tanaka, Y; Nabeyama, W; Hatori, M; Nakamura, H

> <Institution>
Gakushuin University

> <Link to Ligand in BindingDB>
http://www.bindingdb.org/bind/chemsearch/marvin/MolStructure.jsp?monomerid=50308832

> <Link to Ligand-Target Pair in BindingDB>
http://www.bindingdb.org/jsp/dbsearch/PrimarySearch_ki.jsp?energyterm=kJ/mole&tag=r21&monomerid=50308832&enzyme=Epidermal+growth+factor+receptor&column=ki&startPg=0&Increment=50&submit=Search

> <Ligand HET ID in PDB>


> <PDB ID(s) for Ligand-Target Complex>


> <PubChem CID>
46230529

> <PubChem SID>
104163193

> <ChEBI ID of Ligand>


> <ChEMBL ID of Ligand>
CHEMBL597949

> <DrugBank ID of Ligand>


> <IUPHAR_GRAC ID of Ligand>


> <KEGG ID of Ligand>


> <ZINC ID of Ligand>
ZINC45356495

> <Number of Protein Chains in Target (>
1

> <BindingDB Target Chain Sequence>
MRPSGTAGAALLALLAALCPASRALEEKKVCQGTSNKLTQLGTFEDHFLSLQRMFNNCEVVLGNLEITYVQRNYDLSFLKTIQEVAGYVLIALNTVERIPLENLQIIRGNMYYENSYALAVLSNYDANKTGLKELPMRNLQEILHGAVRFSNNPALCNVESIQWRDIVSSDFLSNMSMDFQNHLGSCQKCDPSCPNGSCWGAGEENCQKLTKIICAQQCSGRCRGKSPSDCCHNQCAAGCTGPRESDCLVCRKFRDEATCKDTCPPLMLYNPTTYQMDVNPEGKYSFGATCVKKCPRNYVVTDHGSCVRACGADSYEMEEDGVRKCKKCEGPCRKVCNGIGIGEFKDSLSINATNIKHFKNCTSISGDLHILPVAFRGDSFTHTPPLDPQELDILKTVKEITGFLLIQAWPENRTDLHAFENLEIIRGRTKQHGQFSLAVVSLNITSLGLRSLKEISDGDVIISGNKNLCYANTINWKKLFGTSGQKTKIISNRGENSCKATGQVCHALCSPEGCWGPEPRDCVSCRNVSRGRECVDKCNLLEGEPREFVENSECIQCHPECLPQAMNITCTGRGPDNCIQCAHYIDGPHCVKTCPAGVMGENNTLVWKYADAGHVCHLCHPNCTYGCTGPGLEGCPTNGPKIPSIATGMVGALLLLLVVALGIGLFMRRRHIVRKRTLRRLLQERELVEPLTPSGEAPNQALLRILKETEFKKIKVLGSGAFGTVYKGLWIPEGEKVKIPVAIKELREATSPKANKEILDEAYVMASVDNPHVCRLLGICLTSTVQLITQLMPFGCLLDYVREHKDNIGSQYLLNWCVQIAKGMNYLEDRRLVHRDLAARNVLVKTPQHVKITDFGLAKLLGAEEKEYHAEGGKVPIKWMALESILHRIYTHQSDVWSYGVTVWELMTFGSKPYDGIPASEISSILEKGERLPQPPICTIDVYMIMVKCWMIDADSRPKFRELIIEFSKMARDPQRYLVIQGDERMHLPSPTDSNFYRALMDEEDMDDVVDADEYLIPQQGFFSSPSTSRTPLLSSLSATSNNSTVACIDRNGLQSCPIKEDSFLQRYSSDPTGALTEDSIDDTFLPVPEYINQSVPKRPAGSVQNPVYHNQPLNPAPSRDPHYQDPHSTAVGNPEYLNTVQPTCVNSTFDSPAHWAQKGSHQISLDNPDYQQDFFPKEAKPNGIFKGSTAENAEYLRVAPQSSEFIGA

> <PDB ID(s) of Target Chain>
1IVO,1M14,1M17,1MOX,1XKK,1Z9I,2GS2,2GS6,2ITW,2ITX,2ITY,2J5E,2J5F,2J6M,2RF9,2RGP,3B2V,3BEL,3GOP,3POZ,3QWQ,3VJO,3W2O,3W2P,3W2Q,3W2R,3W2S,3W32,3W33,4G5J,4I23,4JQ7,4JQ8,4JR3,4JRV,4KRO,4LI5,4RJ4,4RJ5,4RJ6,4RJ7,4RJ8,4TKS,4UIP,4UV7,4WKQ,4WRG,4ZAU,5C8K,5C8M,5C8N,5CAL,5CAN,5CAO,5CAP,5CAQ,5CAS,5CAU,5CAV,5EDP,5EDQ,5EDR,5EM5,5EM6,5EM7,5EM8,5FED,5GNK,5HCX,5HCY,5HCZ,5HIB,5HIC,5UGB,5WB7,5WB8,5Y25,6S89,6S8A

> <UniProt (SwissProt) Recommended Name of Target Chain>
Epidermal growth factor receptor

> <UniProt (SwissProt) Entry Name of Target Chain>
EGFR_HUMAN

> <UniProt (SwissProt) Primary ID of Target Chain>
P00533

> <UniProt (SwissProt) Secondary ID(s) of Target Chain>
O00688,O00732,P06268,Q14225,Q68GS5,Q92795,Q9BZS2,Q9GZX1,Q9H2C9,Q9H3C9,Q9UMD7,Q9UMD8,Q9UMG5

> <UniProt (SwissProt) Alternative ID(s) of Target Chain>


> <UniProt (TrEMBL) Submitted Name of Target Chain>


> <UniProt (TrEMBL) Entry Name of Target Chain>


> <UniProt (TrEMBL) Primary ID of Target Chain>


> <UniProt (TrEMBL) Secondary ID(s) of Target Chain>


> <UniProt (TrEMBL) Alternative ID(s) of Target Chain>


> <training label>
7.82974

> <i_lp_mmshare_version>
54117

> <s_epik_input>
W0NIXSNDW0NIMl1PYyhbY0hdMSljKE9bQ0gzXSlbY0hdYyhjMTIpbltjSF1uYzJbTkhdYzNbY0hdYyhDbCljKEYpW2NIXVtjSF0z

> <s_epik_cmdline>
J2VwaWtfcHl0aG9uJywgJy1waHQnLCAnMC4xJywgJy1waCcsICc3LjQnLCAnLXRuJywgJzgnLCAnLW1hJywgJzIwMCcsICctaW1hZScsICc8aW5maWxlLm1hZT4nLCAnLW9tYWUnLCAnPG91dGZpbGUubWFlPic=

> <r_lp_tautomer_probability>
1

> <r_epik_Ionization_Penalty>
  0.0006

> <r_epik_Ionization_Penalty_Charging>
  0.0000

> <r_epik_Ionization_Penalty_Neutral>
  0.0006

> <r_epik_State_Penalty>
  0.0000

> <r_epik_Charging_Adjusted_Penalty>
0

> <i_epik_Tot_Q>
0

> <i_epik_Tot_abs_Q>
0

> <i_f3d_flags>
0

> <s_lp_Force_Field>
OPLS_2005

> <r_lp_Energy>
19.799994

> <b_lp_Chiralities_Consistent>
1

> <s_lp_Variant>
BindingDB_50308832_mol_1-1

> <s_i_glide_gridfile>
struct_1_site_1

> <i_i_glide_lignum>
220

> <i_i_glide_rotatable_bonds>
6

> <r_i_docking_score>
-7.33412002743974

> <r_i_glide_ligand_efficiency>
-0.29336480109759

> <r_i_glide_ligand_efficiency_sa>
-0.857803881256253

> <r_i_glide_ligand_efficiency_ln>
-1.73840623234481

> <r_i_glide_gscore>
-7.33412002743974

> <r_i_glide_lipo>
-2.94611205141712

> <r_i_glide_hbond>
-0.32

> <r_i_glide_metal>
0

> <r_i_glide_rewards>
-2.12714254694116

> <r_i_glide_evdw>
-40.3565979003906

> <r_i_glide_ecoul>
-4.04976224899292

> <r_i_glide_erotb>
0.747986695775349

> <r_i_glide_esite>
-0.0635578924883375

> <r_i_glide_emodel>
-50.7744768849657

> <r_i_glide_energy>
-44.4063601493835

> <r_i_glide_einternal>
2.57421660423279

> <i_i_glide_confnum>
8

> <i_i_glide_posenum>
2

> <r_i_glide_eff_state_penalty>
0

> <IC50 (nM)>
14.8

> <PMID>
19969465

> <r_glide_shape_similarity>
0.865699231624603

> <s_m_subgroup_title>
505 training

> <s_m_subgroupid>
pocket_pv

> <b_m_subgroup_collapsed>
0

$$$$
6-alkoxy-4-anilinoquinazoline
                    3D
 Schrodinger Suite 2021-2.
 67 70  0  0  1  0            999 V2000
   14.4607    0.8440   52.9865 C   0  0  0  0  0  0
   15.2160   -0.3398   52.9701 C   0  0  0  0  0  0
   16.1379   -0.5783   51.9321 C   0  0  0  0  0  0
   16.3110    0.3739   50.9049 C   0  0  0  0  0  0
   15.5925    1.6009   50.9311 C   0  0  0  0  0  0
   14.6597    1.8103   51.9783 C   0  0  0  0  0  0
   15.8161    2.7381   49.9014 C   0  0  0  0  0  0
   17.0158    2.6999   49.1009 O   0  0  0  0  0  0
   18.2334    2.5358   49.7278 C   0  0  0  0  0  0
   19.3096    2.0341   48.9651 C   0  0  0  0  0  0
   18.4052    2.7072   51.1255 C   0  0  0  0  0  0
   19.5185    2.1463   51.7723 C   0  0  0  0  0  0
   20.5076    1.4877   51.0183 C   0  0  0  0  0  0
   20.4497    1.5142   49.6095 C   0  0  0  0  0  0
   21.5612    0.8411   51.6615 N   0  0  0  0  0  0
   21.5056    0.0603   52.8219 C   0  0  0  0  0  0
   20.3219   -1.3005   54.2217 C   0  0  0  0  0  0
   22.6902   -0.2133   53.5398 C   0  0  0  0  0  0
   22.5712   -1.1110   54.6296 C   0  0  0  0  0  0
   23.9396    0.3686   53.2055 C   0  0  0  0  0  0
   24.9722   -0.8134   55.0478 C   0  0  0  0  0  0
   23.7292   -1.4050   55.3730 C   0  0  0  0  0  0
   20.3158   -0.4662   53.1881 N   0  0  0  0  0  0
   21.3819   -1.6628   54.9522 N   0  0  0  0  0  0
   25.0974    0.0920   53.9714 C   0  0  0  0  0  0
   26.3386    0.6768   53.7711 O   0  0  0  0  0  0
   26.5479    1.4815   52.6146 C   0  0  0  0  0  0
   25.9054    2.8906   52.6972 C   0  0  0  0  0  0
   25.7232    3.5491   51.2988 C   0  0  0  0  0  0
   25.0897    4.8972   51.3745 N   0  3  0  0  0  0
   25.4633    5.8583   50.2922 C   0  0  0  0  0  0
   25.2136    7.3289   50.7203 C   0  0  0  0  0  0
   27.9462    8.2376   50.4427 C   0  0  0  0  0  0
   25.8906    9.9322   50.1762 O   0  0  0  0  0  0
   26.2575    8.5596   49.7784 S   0  0  0  0  0  0
   26.2426    8.1788   48.3564 O   0  0  0  0  0  0
   13.7579    1.0316   53.7828 H   0  0  0  0  0  0
   15.0696   -1.0691   53.7504 H   0  0  0  0  0  0
   16.6932   -1.5003   51.9158 H   0  0  0  0  0  0
   17.0122    0.1759   50.1091 H   0  0  0  0  0  0
   14.0995    2.7303   52.0140 H   0  0  0  0  0  0
   15.7724    3.7038   50.4045 H   0  0  0  0  0  0
   14.9732    2.7322   49.2154 H   0  0  0  0  0  0
   19.2070    1.9338   47.8957 H   0  0  0  0  0  0
   17.6333    3.1495   51.7363 H   0  0  0  0  0  0
   19.5851    2.1920   52.8459 H   0  0  0  0  0  0
   21.2314    1.0518   49.0226 H   0  0  0  0  0  0
   22.4361    0.8182   51.1637 H   0  0  0  0  0  0
   19.3743   -1.7319   54.5013 H   0  0  0  0  0  0
   23.9949    1.0411   52.3654 H   0  0  0  0  0  0
   25.8435   -1.0315   55.6464 H   0  0  0  0  0  0
   23.6681   -2.0870   56.2089 H   0  0  0  0  0  0
   26.1974    0.9392   51.7347 H   0  0  0  0  0  0
   27.6252    1.5917   52.4825 H   0  0  0  0  0  0
   26.5217    3.5289   53.3278 H   0  0  0  0  0  0
   24.9413    2.8553   53.2001 H   0  0  0  0  0  0
   25.1342    2.9149   50.6419 H   0  0  0  0  0  0
   26.7122    3.6393   50.8438 H   0  0  0  0  0  0
   25.5366    5.2940   52.2215 H   0  0  0  0  0  0
   24.9298    5.6277   49.3737 H   0  0  0  0  0  0
   26.5263    5.7364   50.0788 H   0  0  0  0  0  0
   25.4402    7.4594   51.7744 H   0  0  0  0  0  0
   24.1701    7.6017   50.5973 H   0  0  0  0  0  0
   28.6406    8.9612   50.0237 H   0  0  0  0  0  0
   28.2817    7.2365   50.1723 H   0  0  0  0  0  0
   27.9359    8.3385   51.5273 H   0  0  0  0  0  0
   24.0898    4.8465   51.5287 H   0  0  0  0  0  0
  1  2  2  0  0  0
  1  6  1  0  0  0
  1 37  1  0  0  0
  2  3  1  0  0  0
  2 38  1  0  0  0
  3  4  2  0  0  0
  3 39  1  0  0  0
  4  5  1  0  0  0
  4 40  1  0  0  0
  5  6  2  0  0  0
  5  7  1  0  0  0
  6 41  1  0  0  0
  7  8  1  0  0  0
  7 42  1  0  0  0
  7 43  1  0  0  0
  8  9  1  0  0  0
  9 10  2  0  0  0
  9 11  1  0  0  0
 10 14  1  0  0  0
 10 44  1  0  0  0
 11 12  2  0  0  0
 11 45  1  0  0  0
 12 13  1  0  0  0
 12 46  1  0  0  0
 13 14  2  0  0  0
 13 15  1  0  0  0
 14 47  1  0  0  0
 15 16  1  0  0  0
 15 48  1  0  0  0
 16 18  2  0  0  0
 16 23  1  0  0  0
 17 23  2  0  0  0
 17 24  1  0  0  0
 17 49  1  0  0  0
 18 19  1  0  0  0
 18 20  1  0  0  0
 19 22  1  0  0  0
 19 24  2  0  0  0
 20 25  2  0  0  0
 20 50  1  0  0  0
 21 22  2  0  0  0
 21 25  1  0  0  0
 21 51  1  0  0  0
 22 52  1  0  0  0
 25 26  1  0  0  0
 26 27  1  0  0  0
 27 28  1  0  0  0
 27 53  1  0  0  0
 27 54  1  0  0  0
 28 29  1  0  0  0
 28 55  1  0  0  0
 28 56  1  0  0  0
 29 30  1  0  0  0
 29 57  1  0  0  0
 29 58  1  0  0  0
 30 31  1  0  0  0
 30 59  1  0  0  0
 30 67  1  0  0  0
 31 32  1  0  0  0
 31 60  1  0  0  0
 31 61  1  0  0  0
 32 35  1  0  0  0
 32 62  1  0  0  0
 32 63  1  0  0  0
 33 35  1  0  0  0
 33 64  1  0  0  0
 33 65  1  0  0  0
 33 66  1  0  0  0
 34 35  2  0  0  0
 35 36  2  0  0  0
M  CHG  1  30   1
M  END
> <s_m_entry_id>
340

> <s_m_entry_name>
pocket_pv.151

> <s_m_Source_Path>
/home/bortolaa/Project/GT/mario-master/docking/set505protein_struct_1_site_1_set505ligs_train

> <s_m_Source_File>
pocket_pv.maegz

> <i_m_Source_File_Index>
151

> <From>
www.bindingDB.org

> <BindingDB Reactant_set_id>
8661

> <Ligand InChI>
InChI=1S/C27H30N4O4S/c1-36(32,33)17-15-28-14-5-16-34-24-12-13-26-25(18-24)27(30-20-29-26)31-22-8-10-23(11-9-22)35-19-21-6-3-2-4-7-21/h2-4,6-13,18,20,28H,5,14-17,19H2,1H3,(H,29,30,31)

> <Ligand InChI Key>
PFBNCPMUCGZALP-UHFFFAOYSA-N

> <BindingDB MonomerID>
5453

> <BindingDB Ligand Name>
6-alkoxy-4-anilinoquinazoline 12a::N-[4-(benzyloxy)phenyl]-6-{3-[(2-methanesulfonylethyl)amino]propoxy}quinazolin-4-amine

> <Target Name Assigned by Curator or DataSource>
Epidermal growth factor receptor

> <Target Source Organism According to Curator or DataSource>
Homo sapiens

> <Ki (nM)>


> <Kd (nM)>


> <EC50 (nM)>


> <kon (M-1-s-1)>


> <koff (s-1)>


> <Curation/DataSource>
Curated from the literature by BindingDB

> <Article DOI>
10.1021/jm061320h

> <PubChem AID>


> <Patent Number>


> <Authors>
Gaul, MD; Guo, Y; Affleck, K; Cockerill, GS; Gilmer, TM; Griffin, RJ; Guntrip, S; Keith, BR; Knight, WB; Mullin, RJ; Murray, DM; Rusnak, DW; Smith, K; Tadepalli, S; Wood, ER; Lackey, K

> <Institution>
GlaxoSmithKline

> <Link to Ligand in BindingDB>
http://www.bindingdb.org/bind/chemsearch/marvin/MolStructure.jsp?monomerid=5453

> <Link to Ligand-Target Pair in BindingDB>
http://www.bindingdb.org/jsp/dbsearch/PrimarySearch_ki.jsp?energyterm=kJ/mole&tag=r21&monomerid=5453&enzyme=Epidermal+growth+factor+receptor&column=ki&startPg=0&Increment=50&submit=Search

> <Ligand HET ID in PDB>


> <PDB ID(s) for Ligand-Target Complex>


> <PubChem CID>
5329486

> <PubChem SID>
8035072

> <ChEBI ID of Ligand>


> <ChEMBL ID of Ligand>


> <DrugBank ID of Ligand>


> <IUPHAR_GRAC ID of Ligand>


> <KEGG ID of Ligand>


> <ZINC ID of Ligand>
ZINC13588399

> <Number of Protein Chains in Target (>
1

> <BindingDB Target Chain Sequence>
MRPSGTAGAALLALLAALCPASRALEEKKVCQGTSNKLTQLGTFEDHFLSLQRMFNNCEVVLGNLEITYVQRNYDLSFLKTIQEVAGYVLIALNTVERIPLENLQIIRGNMYYENSYALAVLSNYDANKTGLKELPMRNLQEILHGAVRFSNNPALCNVESIQWRDIVSSDFLSNMSMDFQNHLGSCQKCDPSCPNGSCWGAGEENCQKLTKIICAQQCSGRCRGKSPSDCCHNQCAAGCTGPRESDCLVCRKFRDEATCKDTCPPLMLYNPTTYQMDVNPEGKYSFGATCVKKCPRNYVVTDHGSCVRACGADSYEMEEDGVRKCKKCEGPCRKVCNGIGIGEFKDSLSINATNIKHFKNCTSISGDLHILPVAFRGDSFTHTPPLDPQELDILKTVKEITGFLLIQAWPENRTDLHAFENLEIIRGRTKQHGQFSLAVVSLNITSLGLRSLKEISDGDVIISGNKNLCYANTINWKKLFGTSGQKTKIISNRGENSCKATGQVCHALCSPEGCWGPEPRDCVSCRNVSRGRECVDKCNLLEGEPREFVENSECIQCHPECLPQAMNITCTGRGPDNCIQCAHYIDGPHCVKTCPAGVMGENNTLVWKYADAGHVCHLCHPNCTYGCTGPGLEGCPTNGPKIPSIATGMVGALLLLLVVALGIGLFMRRRHIVRKRTLRRLLQERELVEPLTPSGEAPNQALLRILKETEFKKIKVLGSGAFGTVYKGLWIPEGEKVKIPVAIKELREATSPKANKEILDEAYVMASVDNPHVCRLLGICLTSTVQLITQLMPFGCLLDYVREHKDNIGSQYLLNWCVQIAKGMNYLEDRRLVHRDLAARNVLVKTPQHVKITDFGLAKLLGAEEKEYHAEGGKVPIKWMALESILHRIYTHQSDVWSYGVTVWELMTFGSKPYDGIPASEISSILEKGERLPQPPICTIDVYMIMVKCWMIDADSRPKFRELIIEFSKMARDPQRYLVIQGDERMHLPSPTDSNFYRALMDEEDMDDVVDADEYLIPQQGFFSSPSTSRTPLLSSLSATSNNSTVACIDRNGLQSCPIKEDSFLQRYSSDPTGALTEDSIDDTFLPVPEYINQSVPKRPAGSVQNPVYHNQPLNPAPSRDPHYQDPHSTAVGNPEYLNTVQPTCVNSTFDSPAHWAQKGSHQISLDNPDYQQDFFPKEAKPNGIFKGSTAENAEYLRVAPQSSEFIGA

> <PDB ID(s) of Target Chain>
1IVO,1M14,1M17,1MOX,1XKK,1Z9I,2GS2,2GS6,2ITW,2ITX,2ITY,2J5E,2J5F,2J6M,2RF9,2RGP,3B2V,3BEL,3GOP,3POZ,3QWQ,3VJO,3W2O,3W2P,3W2Q,3W2R,3W2S,3W32,3W33,4G5J,4I23,4JQ7,4JQ8,4JR3,4JRV,4KRO,4LI5,4RJ4,4RJ5,4RJ6,4RJ7,4RJ8,4TKS,4UIP,4UV7,4WKQ,4WRG,4ZAU,5C8K,5C8M,5C8N,5CAL,5CAN,5CAO,5CAP,5CAQ,5CAS,5CAU,5CAV,5EDP,5EDQ,5EDR,5EM5,5EM6,5EM7,5EM8,5FED,5GNK,5HCX,5HCY,5HCZ,5HIB,5HIC,5UGB,5WB7,5WB8,5Y25,6S89,6S8A

> <UniProt (SwissProt) Recommended Name of Target Chain>
Epidermal growth factor receptor

> <UniProt (SwissProt) Entry Name of Target Chain>
EGFR_HUMAN

> <UniProt (SwissProt) Primary ID of Target Chain>
P00533

> <UniProt (SwissProt) Secondary ID(s) of Target Chain>
O00688,O00732,P06268,Q14225,Q68GS5,Q92795,Q9BZS2,Q9GZX1,Q9H2C9,Q9H3C9,Q9UMD7,Q9UMD8,Q9UMG5

> <UniProt (SwissProt) Alternative ID(s) of Target Chain>


> <UniProt (TrEMBL) Submitted Name of Target Chain>


> <UniProt (TrEMBL) Entry Name of Target Chain>


> <UniProt (TrEMBL) Primary ID of Target Chain>


> <UniProt (TrEMBL) Secondary ID(s) of Target Chain>


> <UniProt (TrEMBL) Alternative ID(s) of Target Chain>


> <training label>
6.98297

> <i_lp_mmshare_version>
54117

> <s_epik_input>
W2NIXTFbY0hdW2NIXVtjSF1bY0hdYzFbQ0gyXU9jMltjSF1bY0hdYyhbY0hdW2NIXTIpW05IXWMzbltjSF1uYyhjMzQpW2NIXVtjSF1jKFtjSF00KU9bQ0gyXVtDSDJdW0NIMl1bTkhdW0NIMl1bQ0gyXVMoPU8pKD1PKVtDSDNd

> <s_epik_cmdline>
J2VwaWtfcHl0aG9uJywgJy1waHQnLCAnMC4xJywgJy1waCcsICc3LjQnLCAnLXRuJywgJzgnLCAnLW1hJywgJzIwMCcsICctaW1hZScsICc8aW5maWxlLm1hZT4nLCAnLW9tYWUnLCAnPG91dGZpbGUubWFlPic=

> <r_lp_tautomer_probability>
0.999978000241998

> <r_epik_Ionization_Penalty>
  0.2520

> <r_epik_Ionization_Penalty_Charging>
  0.2518

> <r_epik_Ionization_Penalty_Neutral>
  0.0002

> <r_epik_State_Penalty>
  0.2432

> <r_epik_Charging_Adjusted_Penalty>
0.494949634672986

> <i_epik_Tot_Q>
1

> <i_epik_Tot_abs_Q>
1

> <i_f3d_flags>
0

> <s_lp_Force_Field>
OPLS_2005

> <r_lp_Energy>
25.681579

> <b_lp_Chiralities_Consistent>
1

> <s_lp_Variant>
6-alkoxy-4-anilinoquinazoline-1

> <s_i_glide_gridfile>
struct_1_site_1

> <i_i_glide_lignum>
154

> <i_i_glide_rotatable_bonds>
13

> <r_i_docking_score>
-7.33321790586108

> <r_i_glide_ligand_efficiency>
-0.20370049738503

> <r_i_glide_ligand_efficiency_sa>
-0.672604222125589

> <r_i_glide_ligand_efficiency_ln>
-1.59991002640673

> <r_i_glide_gscore>
-7.57641790586108

> <r_i_glide_lipo>
-2.26369415413749

> <r_i_glide_hbond>
-0.442296989565237

> <r_i_glide_metal>
0

> <r_i_glide_rewards>
-1.16164326507084

> <r_i_glide_evdw>
-42.7933502197266

> <r_i_glide_ecoul>
-15.3365640640259

> <r_i_glide_erotb>
0.953164815935088

> <r_i_glide_esite>
-0.221796192432392

> <r_i_glide_emodel>
-42.7001137608767

> <r_i_glide_energy>
-58.1299142837524

> <r_i_glide_einternal>
12.0358467102051

> <i_i_glide_confnum>
642

> <i_i_glide_posenum>
205

> <r_i_glide_eff_state_penalty>
0.2432

> <IC50 (nM)>
104

> <PMID>
12639547

> <Temp C>
23

> <r_glide_shape_similarity>
0.556017160415649

> <pH>
7.5

> <s_m_subgroup_title>
505 training

> <s_m_subgroupid>
pocket_pv

> <b_m_subgroup_collapsed>
0

$$$$
BindingDB_50102089_mol_1
                    3D
 Schrodinger Suite 2021-2.
 52 55  0  0  1  0            999 V2000
   22.0739   -0.1739   53.5001 C   0  0  0  0  0  0
   23.4400   -0.1002   53.8694 C   0  0  0  0  0  0
   21.2669   -1.1258   54.1840 C   0  0  0  0  0  0
   21.5100    0.6553   52.5033 C   0  0  0  0  0  0
   23.9438   -0.9055   54.8305 N   0  0  0  0  0  0
   19.8988   -1.2327   53.8413 C   0  0  0  0  0  0
   24.2864    0.8527   53.2740 N   0  0  0  0  0  0
   20.1386    0.5466   52.1951 C   0  0  0  0  0  0
   19.3220   -0.3994   52.8490 C   0  0  0  0  0  0
   27.9137   -0.0733   53.3851 C   0  0  0  0  0  0
   21.8034   -1.9096   55.1462 N   0  0  0  0  0  0
   26.5109   -0.2008   53.3287 C   0  0  0  0  0  0
   18.8811    2.7289   48.0969 N   0  3  0  0  0  0
   23.1001   -1.7522   55.4179 C   0  0  0  0  0  0
   25.6834    0.9495   53.3395 C   0  0  0  0  0  0
   28.4937    1.2127   53.4571 C   0  0  0  0  0  0
   27.6771    2.3654   53.4305 C   0  0  0  0  0  0
   28.9105   -1.4916   53.3724 Cl  0  0  0  0  0  0
   26.2743    2.2341   53.3689 C   0  0  0  0  0  0
   19.5049    1.4561   51.4013 O   0  0  0  0  0  0
   29.8363    1.3283   53.5768 F   0  0  0  0  0  0
   17.9842   -0.4081   52.4833 O   0  0  0  0  0  0
   18.9143    2.6439   49.5690 C   0  0  0  0  0  0
   19.9783    1.6658   50.0910 C   0  0  0  0  0  0
   20.0782    3.3756   47.4951 C   0  0  0  0  0  0
   17.6935    3.4661   47.5843 C   0  0  0  0  0  0
   17.0595   -1.1507   53.2645 C   0  0  0  0  0  0
   19.6304    3.8685   46.1012 C   0  0  0  0  0  0
   18.0920    4.0162   46.1934 C   0  0  0  0  0  0
   22.1030    1.4083   52.0080 H   0  0  0  0  0  0
   19.2969   -1.9515   54.3756 H   0  0  0  0  0  0
   23.8190    1.6306   52.8311 H   0  0  0  0  0  0
   26.0770   -1.1884   53.2721 H   0  0  0  0  0  0
   23.5153   -2.3999   56.1749 H   0  0  0  0  0  0
   28.1235    3.3484   53.4767 H   0  0  0  0  0  0
   25.6636    3.1265   53.3616 H   0  0  0  0  0  0
   19.0477    3.6310   50.0166 H   0  0  0  0  0  0
   17.9299    2.2937   49.8842 H   0  0  0  0  0  0
   19.9732    0.7317   49.5301 H   0  0  0  0  0  0
   20.9823    2.0939   50.0643 H   0  0  0  0  0  0
   20.9303    2.6959   47.4490 H   0  0  0  0  0  0
   20.3729    4.2348   48.1009 H   0  0  0  0  0  0
   17.4650    4.3027   48.2482 H   0  0  0  0  0  0
   16.8128    2.8258   47.5435 H   0  0  0  0  0  0
   16.0460   -0.9580   52.9121 H   0  0  0  0  0  0
   17.2456   -2.2221   53.1801 H   0  0  0  0  0  0
   17.1059   -0.8642   54.3158 H   0  0  0  0  0  0
   19.8832    3.1296   45.3392 H   0  0  0  0  0  0
   20.1210    4.8015   45.8231 H   0  0  0  0  0  0
   17.7874    5.0573   46.0868 H   0  0  0  0  0  0
   17.6086    3.4482   45.3974 H   0  0  0  0  0  0
   18.8136    1.7810   47.7279 H   0  0  0  0  0  0
  1  2  2  0  0  0
  1  3  1  0  0  0
  1  4  1  0  0  0
  2  5  1  0  0  0
  2  7  1  0  0  0
  3  6  1  0  0  0
  3 11  2  0  0  0
  4  8  2  0  0  0
  4 30  1  0  0  0
  5 14  2  0  0  0
  6  9  2  0  0  0
  6 31  1  0  0  0
  7 15  1  0  0  0
  7 32  1  0  0  0
  8  9  1  0  0  0
  8 20  1  0  0  0
  9 22  1  0  0  0
 10 12  2  0  0  0
 10 16  1  0  0  0
 10 18  1  0  0  0
 11 14  1  0  0  0
 12 15  1  0  0  0
 12 33  1  0  0  0
 13 23  1  0  0  0
 13 25  1  0  0  0
 13 26  1  0  0  0
 13 52  1  0  0  0
 14 34  1  0  0  0
 15 19  2  0  0  0
 16 17  2  0  0  0
 16 21  1  0  0  0
 17 19  1  0  0  0
 17 35  1  0  0  0
 19 36  1  0  0  0
 20 24  1  0  0  0
 22 27  1  0  0  0
 23 24  1  0  0  0
 23 37  1  0  0  0
 23 38  1  0  0  0
 24 39  1  0  0  0
 24 40  1  0  0  0
 25 28  1  0  0  0
 25 41  1  0  0  0
 25 42  1  0  0  0
 26 29  1  0  0  0
 26 43  1  0  0  0
 26 44  1  0  0  0
 27 45  1  0  0  0
 27 46  1  0  0  0
 27 47  1  0  0  0
 28 29  1  0  0  0
 28 48  1  0  0  0
 28 49  1  0  0  0
 29 50  1  0  0  0
 29 51  1  0  0  0
M  CHG  1  13   1
M  END
> <s_m_entry_id>
341

> <s_m_entry_name>
pocket_pv.152

> <s_m_Source_Path>
/home/bortolaa/Project/GT/mario-master/docking/set505protein_struct_1_site_1_set505ligs_train

> <s_m_Source_File>
pocket_pv.maegz

> <i_m_Source_File_Index>
152

> <From>
www.bindingDB.org

> <BindingDB Reactant_set_id>
50733037

> <Ligand InChI>
InChI=1S/C21H22ClFN4O2/c1-28-19-12-18-15(11-20(19)29-9-8-27-6-2-3-7-27)21(25-13-24-18)26-14-4-5-17(23)16(22)10-14/h4-5,10-13H,2-3,6-9H2,1H3,(H,24,25,26)

> <Ligand InChI Key>
BLFAAYGECSULMU-UHFFFAOYSA-N

> <BindingDB MonomerID>
50102089

> <BindingDB Ligand Name>
(3-Chloro-4-fluoro-phenyl)-[7-methoxy-6-(2-pyrrolidin-1-yl-ethoxy)-quinazolin-4-yl]-amine::CHEMBL57758

> <Target Name Assigned by Curator or DataSource>
Epidermal growth factor receptor

> <Target Source Organism According to Curator or DataSource>
Homo sapiens

> <Ki (nM)>


> <Kd (nM)>


> <EC50 (nM)>


> <kon (M-1-s-1)>


> <koff (s-1)>


> <pH>


> <Temp C>


> <Curation/DataSource>
ChEMBL

> <Article DOI>
10.1016/s0960-894x(01)00344-4

> <PubChem AID>


> <Patent Number>


> <Authors>
Barker, AJ; Gibson, KH; Grundy, W; Godfrey, AA; Barlow, JJ; Healy, MP; Woodburn, JR; Ashton, SE; Curry, BJ; Scarlett, L; Henthorn, L; Richards, L

> <Institution>
AstraZeneca

> <Link to Ligand in BindingDB>
http://www.bindingdb.org/bind/chemsearch/marvin/MolStructure.jsp?monomerid=50102089

> <Link to Ligand-Target Pair in BindingDB>
http://www.bindingdb.org/jsp/dbsearch/PrimarySearch_ki.jsp?energyterm=kJ/mole&tag=r21&monomerid=50102089&enzyme=Epidermal+growth+factor+receptor&column=ki&startPg=0&Increment=50&submit=Search

> <Ligand HET ID in PDB>


> <PDB ID(s) for Ligand-Target Complex>


> <PubChem CID>
19077520

> <PubChem SID>
103998646

> <ChEBI ID of Ligand>


> <ChEMBL ID of Ligand>
CHEMBL57758

> <DrugBank ID of Ligand>


> <IUPHAR_GRAC ID of Ligand>


> <KEGG ID of Ligand>


> <ZINC ID of Ligand>
ZINC00839807

> <Number of Protein Chains in Target (>
1

> <BindingDB Target Chain Sequence>
MRPSGTAGAALLALLAALCPASRALEEKKVCQGTSNKLTQLGTFEDHFLSLQRMFNNCEVVLGNLEITYVQRNYDLSFLKTIQEVAGYVLIALNTVERIPLENLQIIRGNMYYENSYALAVLSNYDANKTGLKELPMRNLQEILHGAVRFSNNPALCNVESIQWRDIVSSDFLSNMSMDFQNHLGSCQKCDPSCPNGSCWGAGEENCQKLTKIICAQQCSGRCRGKSPSDCCHNQCAAGCTGPRESDCLVCRKFRDEATCKDTCPPLMLYNPTTYQMDVNPEGKYSFGATCVKKCPRNYVVTDHGSCVRACGADSYEMEEDGVRKCKKCEGPCRKVCNGIGIGEFKDSLSINATNIKHFKNCTSISGDLHILPVAFRGDSFTHTPPLDPQELDILKTVKEITGFLLIQAWPENRTDLHAFENLEIIRGRTKQHGQFSLAVVSLNITSLGLRSLKEISDGDVIISGNKNLCYANTINWKKLFGTSGQKTKIISNRGENSCKATGQVCHALCSPEGCWGPEPRDCVSCRNVSRGRECVDKCNLLEGEPREFVENSECIQCHPECLPQAMNITCTGRGPDNCIQCAHYIDGPHCVKTCPAGVMGENNTLVWKYADAGHVCHLCHPNCTYGCTGPGLEGCPTNGPKIPSIATGMVGALLLLLVVALGIGLFMRRRHIVRKRTLRRLLQERELVEPLTPSGEAPNQALLRILKETEFKKIKVLGSGAFGTVYKGLWIPEGEKVKIPVAIKELREATSPKANKEILDEAYVMASVDNPHVCRLLGICLTSTVQLITQLMPFGCLLDYVREHKDNIGSQYLLNWCVQIAKGMNYLEDRRLVHRDLAARNVLVKTPQHVKITDFGLAKLLGAEEKEYHAEGGKVPIKWMALESILHRIYTHQSDVWSYGVTVWELMTFGSKPYDGIPASEISSILEKGERLPQPPICTIDVYMIMVKCWMIDADSRPKFRELIIEFSKMARDPQRYLVIQGDERMHLPSPTDSNFYRALMDEEDMDDVVDADEYLIPQQGFFSSPSTSRTPLLSSLSATSNNSTVACIDRNGLQSCPIKEDSFLQRYSSDPTGALTEDSIDDTFLPVPEYINQSVPKRPAGSVQNPVYHNQPLNPAPSRDPHYQDPHSTAVGNPEYLNTVQPTCVNSTFDSPAHWAQKGSHQISLDNPDYQQDFFPKEAKPNGIFKGSTAENAEYLRVAPQSSEFIGA

> <PDB ID(s) of Target Chain>
1IVO,1M14,1M17,1MOX,1XKK,1Z9I,2GS2,2GS6,2ITW,2ITX,2ITY,2J5E,2J5F,2J6M,2RF9,2RGP,3B2V,3BEL,3GOP,3POZ,3QWQ,3VJO,3W2O,3W2P,3W2Q,3W2R,3W2S,3W32,3W33,4G5J,4I23,4JQ7,4JQ8,4JR3,4JRV,4KRO,4LI5,4RJ4,4RJ5,4RJ6,4RJ7,4RJ8,4TKS,4UIP,4UV7,4WKQ,4WRG,4ZAU,5C8K,5C8M,5C8N,5CAL,5CAN,5CAO,5CAP,5CAQ,5CAS,5CAU,5CAV,5EDP,5EDQ,5EDR,5EM5,5EM6,5EM7,5EM8,5FED,5GNK,5HCX,5HCY,5HCZ,5HIB,5HIC,5UGB,5WB7,5WB8,5Y25,6S89,6S8A

> <UniProt (SwissProt) Recommended Name of Target Chain>
Epidermal growth factor receptor

> <UniProt (SwissProt) Entry Name of Target Chain>
EGFR_HUMAN

> <UniProt (SwissProt) Primary ID of Target Chain>
P00533

> <UniProt (SwissProt) Secondary ID(s) of Target Chain>
O00688,O00732,P06268,Q14225,Q68GS5,Q92795,Q9BZS2,Q9GZX1,Q9H2C9,Q9H3C9,Q9UMD7,Q9UMD8,Q9UMG5

> <UniProt (SwissProt) Alternative ID(s) of Target Chain>


> <UniProt (TrEMBL) Submitted Name of Target Chain>


> <UniProt (TrEMBL) Entry Name of Target Chain>


> <UniProt (TrEMBL) Primary ID of Target Chain>


> <UniProt (TrEMBL) Secondary ID(s) of Target Chain>


> <UniProt (TrEMBL) Alternative ID(s) of Target Chain>


> <training label>
7.06048

> <i_lp_mmshare_version>
54117

> <s_epik_input>
RmMxW2NIXVtjSF1jKFtjSF1jMUNsKVtOSF1jMm5bY0hdbmMoYzIzKVtjSF1jKE9bQ0gzXSljKFtjSF0zKU9bQ0gyXVtDSDJdTjRbQ0gyXVtDSDJdW0NIMl1bQ0gyXTQ=

> <s_epik_cmdline>
J2VwaWtfcHl0aG9uJywgJy1waHQnLCAnMC4xJywgJy1waCcsICc3LjQnLCAnLXRuJywgJzgnLCAnLW1hJywgJzIwMCcsICctaW1hZScsICc8aW5maWxlLm1hZT4nLCAnLW9tYWUnLCAnPG91dGZpbGUubWFlPic=

> <r_lp_tautomer_probability>
1

> <r_epik_Ionization_Penalty>
  0.0175

> <r_epik_Ionization_Penalty_Charging>
  0.0172

> <r_epik_Ionization_Penalty_Neutral>
  0.0004

> <r_epik_State_Penalty>
  0.0000

> <r_epik_Charging_Adjusted_Penalty>
0.0171866156973975

> <i_epik_Tot_Q>
1

> <i_epik_Tot_abs_Q>
1

> <i_f3d_flags>
0

> <s_lp_Force_Field>
OPLS_2005

> <r_lp_Energy>
46.256619

> <b_lp_Chiralities_Consistent>
1

> <s_lp_Variant>
BindingDB_50102089_mol_1-1

> <s_i_glide_gridfile>
struct_1_site_1

> <i_i_glide_lignum>
169

> <i_i_glide_rotatable_bonds>
7

> <r_i_docking_score>
-7.33271246844729

> <r_i_glide_ligand_efficiency>
-0.252852154084389

> <r_i_glide_ligand_efficiency_sa>
-0.776841926532427

> <r_i_glide_ligand_efficiency_ln>
-1.6790052137297

> <r_i_glide_gscore>
-7.33271246844729

> <r_i_glide_lipo>
-2.92144810417815

> <r_i_glide_hbond>
-0.32

> <r_i_glide_metal>
0

> <r_i_glide_rewards>
-1.70455379349815

> <r_i_glide_evdw>
-41.5568695068359

> <r_i_glide_ecoul>
-5.34830665588379

> <r_i_glide_erotb>
0.566040894574341

> <r_i_glide_esite>
-0.0726619916209606

> <r_i_glide_emodel>
-57.8456427705101

> <r_i_glide_energy>
-46.9051761627197

> <r_i_glide_einternal>
3.81465649604797

> <i_i_glide_confnum>
44

> <i_i_glide_posenum>
20

> <r_i_glide_eff_state_penalty>
0

> <IC50 (nM)>
87

> <PMID>
11459659

> <r_glide_shape_similarity>
0.850448727607727

> <s_m_subgroup_title>
505 training

> <s_m_subgroupid>
pocket_pv

> <b_m_subgroup_collapsed>
0

$$$$
BindingDB_50102076_mol_1
                    3D
 Schrodinger Suite 2021-2.
 51 53  0  0  1  0            999 V2000
   22.0786   -0.1778   53.5028 C   0  0  0  0  0  0
   23.4387   -0.1011   53.8674 C   0  0  0  0  0  0
   21.2743   -1.1204   54.1807 C   0  0  0  0  0  0
   21.5158    0.6502   52.5207 C   0  0  0  0  0  0
   23.9383   -0.8991   54.8244 N   0  0  0  0  0  0
   19.9135   -1.2270   53.8346 C   0  0  0  0  0  0
   24.2865    0.8465   53.2767 N   0  0  0  0  0  0
   20.1528    0.5636   52.2433 C   0  0  0  0  0  0
   19.3387   -0.3893   52.8578 C   0  0  0  0  0  0
   27.8944   -0.0650   53.3868 C   0  0  0  0  0  0
   21.8056   -1.8987   55.1397 N   0  0  0  0  0  0
   26.5031   -0.1941   53.3315 C   0  0  0  0  0  0
   23.0962   -1.7381   55.4106 C   0  0  0  0  0  0
   25.6794    0.9464   53.3421 C   0  0  0  0  0  0
   28.4699    1.2050   53.4587 C   0  0  0  0  0  0
   27.6652    2.3506   53.4291 C   0  0  0  0  0  0
   28.8864   -1.4678   53.3747 Cl  0  0  0  0  0  0
   26.2701    2.2219   53.3675 C   0  0  0  0  0  0
   29.8034    1.3145   53.5740 F   0  0  0  0  0  0
   18.0146   -0.3796   52.4892 O   0  0  0  0  0  0
   19.5669    1.5484   51.5280 O   0  0  0  0  0  0
   18.5953    2.5844   48.2264 N   0  3  0  0  0  0
   19.4332    3.6526   47.6513 C   0  0  0  0  0  0
   18.6483    2.4703   49.6822 C   0  0  0  0  0  0
   19.6323    1.4024   50.1451 C   0  0  0  0  0  0
   17.1040   -1.1404   53.2507 C   0  0  0  0  0  0
   20.9257    3.4589   47.9624 C   0  0  0  0  0  0
   19.1887    3.7405   46.1398 C   0  0  0  0  0  0
   22.0977    1.4151   52.0292 H   0  0  0  0  0  0
   19.3147   -1.9518   54.3640 H   0  0  0  0  0  0
   23.8207    1.6217   52.8379 H   0  0  0  0  0  0
   26.0715   -1.1827   53.2756 H   0  0  0  0  0  0
   23.5098   -2.3791   56.1743 H   0  0  0  0  0  0
   28.1143    3.3326   53.4737 H   0  0  0  0  0  0
   25.6616    3.1158   53.3575 H   0  0  0  0  0  0
   17.6396    2.8147   48.0000 H   0  0  0  0  0  0
   19.1147    4.6003   48.0893 H   0  0  0  0  0  0
   18.8671    3.4389   50.1363 H   0  0  0  0  0  0
   17.6518    2.1920   50.0279 H   0  0  0  0  0  0
   19.3030    0.4089   49.8412 H   0  0  0  0  0  0
   20.6517    1.5542   49.7970 H   0  0  0  0  0  0
   16.0905   -0.9577   52.8940 H   0  0  0  0  0  0
   17.3025   -2.2084   53.1538 H   0  0  0  0  0  0
   17.1367   -0.8661   54.3057 H   0  0  0  0  0  0
   21.5292    4.1995   47.4358 H   0  0  0  0  0  0
   21.2824    2.4737   47.6590 H   0  0  0  0  0  0
   21.1367    3.5954   49.0235 H   0  0  0  0  0  0
   19.7541    4.5679   45.7064 H   0  0  0  0  0  0
   19.4879    2.8260   45.6253 H   0  0  0  0  0  0
   18.1354    3.9171   45.9158 H   0  0  0  0  0  0
   18.8064    1.6898   47.8078 H   0  0  0  0  0  0
  1  2  2  0  0  0
  1  3  1  0  0  0
  1  4  1  0  0  0
  2  5  1  0  0  0
  2  7  1  0  0  0
  3  6  1  0  0  0
  3 11  2  0  0  0
  4  8  2  0  0  0
  4 29  1  0  0  0
  5 13  2  0  0  0
  6  9  2  0  0  0
  6 30  1  0  0  0
  7 14  1  0  0  0
  7 31  1  0  0  0
  8  9  1  0  0  0
  8 21  1  0  0  0
  9 20  1  0  0  0
 10 12  2  0  0  0
 10 15  1  0  0  0
 10 17  1  0  0  0
 11 13  1  0  0  0
 12 14  1  0  0  0
 12 32  1  0  0  0
 13 33  1  0  0  0
 14 18  2  0  0  0
 15 16  2  0  0  0
 15 19  1  0  0  0
 16 18  1  0  0  0
 16 34  1  0  0  0
 18 35  1  0  0  0
 20 26  1  0  0  0
 21 25  1  0  0  0
 22 23  1  0  0  0
 22 24  1  0  0  0
 22 36  1  0  0  0
 22 51  1  0  0  0
 23 27  1  0  0  0
 23 28  1  0  0  0
 23 37  1  0  0  0
 24 25  1  0  0  0
 24 38  1  0  0  0
 24 39  1  0  0  0
 25 40  1  0  0  0
 25 41  1  0  0  0
 26 42  1  0  0  0
 26 43  1  0  0  0
 26 44  1  0  0  0
 27 45  1  0  0  0
 27 46  1  0  0  0
 27 47  1  0  0  0
 28 48  1  0  0  0
 28 49  1  0  0  0
 28 50  1  0  0  0
M  CHG  1  22   1
M  END
> <s_m_entry_id>
342

> <s_m_entry_name>
pocket_pv.153

> <s_m_Source_Path>
/home/bortolaa/Project/GT/mario-master/docking/set505protein_struct_1_site_1_set505ligs_train

> <s_m_Source_File>
pocket_pv.maegz

> <i_m_Source_File_Index>
153

> <From>
www.bindingDB.org

> <BindingDB Reactant_set_id>
50733045

> <Ligand InChI>
InChI=1S/C20H22ClFN4O2/c1-12(2)23-6-7-28-19-9-14-17(10-18(19)27-3)24-11-25-20(14)26-13-4-5-16(22)15(21)8-13/h4-5,8-12,23H,6-7H2,1-3H3,(H,24,25,26)

> <Ligand InChI Key>
SXOWTHDMELDFHL-UHFFFAOYSA-N

> <BindingDB MonomerID>
50102076

> <BindingDB Ligand Name>
(3-Chloro-4-fluoro-phenyl)-[6-(2-isopropylamino-ethoxy)-7-methoxy-quinazolin-4-yl]-amine::CHEMBL55794

> <Target Name Assigned by Curator or DataSource>
Epidermal growth factor receptor

> <Target Source Organism According to Curator or DataSource>
Homo sapiens

> <Ki (nM)>


> <Kd (nM)>


> <EC50 (nM)>


> <kon (M-1-s-1)>


> <koff (s-1)>


> <pH>


> <Temp C>


> <Curation/DataSource>
ChEMBL

> <Article DOI>
10.1016/s0960-894x(01)00344-4

> <PubChem AID>


> <Patent Number>


> <Authors>
Barker, AJ; Gibson, KH; Grundy, W; Godfrey, AA; Barlow, JJ; Healy, MP; Woodburn, JR; Ashton, SE; Curry, BJ; Scarlett, L; Henthorn, L; Richards, L

> <Institution>
AstraZeneca

> <Link to Ligand in BindingDB>
http://www.bindingdb.org/bind/chemsearch/marvin/MolStructure.jsp?monomerid=50102076

> <Link to Ligand-Target Pair in BindingDB>
http://www.bindingdb.org/jsp/dbsearch/PrimarySearch_ki.jsp?energyterm=kJ/mole&tag=r21&monomerid=50102076&enzyme=Epidermal+growth+factor+receptor&column=ki&startPg=0&Increment=50&submit=Search

> <Ligand HET ID in PDB>


> <PDB ID(s) for Ligand-Target Complex>


> <PubChem CID>
44300029

> <PubChem SID>
103998633

> <ChEBI ID of Ligand>


> <ChEMBL ID of Ligand>
CHEMBL55794

> <DrugBank ID of Ligand>


> <IUPHAR_GRAC ID of Ligand>


> <KEGG ID of Ligand>


> <ZINC ID of Ligand>
ZINC29551779

> <Number of Protein Chains in Target (>
1

> <BindingDB Target Chain Sequence>
MRPSGTAGAALLALLAALCPASRALEEKKVCQGTSNKLTQLGTFEDHFLSLQRMFNNCEVVLGNLEITYVQRNYDLSFLKTIQEVAGYVLIALNTVERIPLENLQIIRGNMYYENSYALAVLSNYDANKTGLKELPMRNLQEILHGAVRFSNNPALCNVESIQWRDIVSSDFLSNMSMDFQNHLGSCQKCDPSCPNGSCWGAGEENCQKLTKIICAQQCSGRCRGKSPSDCCHNQCAAGCTGPRESDCLVCRKFRDEATCKDTCPPLMLYNPTTYQMDVNPEGKYSFGATCVKKCPRNYVVTDHGSCVRACGADSYEMEEDGVRKCKKCEGPCRKVCNGIGIGEFKDSLSINATNIKHFKNCTSISGDLHILPVAFRGDSFTHTPPLDPQELDILKTVKEITGFLLIQAWPENRTDLHAFENLEIIRGRTKQHGQFSLAVVSLNITSLGLRSLKEISDGDVIISGNKNLCYANTINWKKLFGTSGQKTKIISNRGENSCKATGQVCHALCSPEGCWGPEPRDCVSCRNVSRGRECVDKCNLLEGEPREFVENSECIQCHPECLPQAMNITCTGRGPDNCIQCAHYIDGPHCVKTCPAGVMGENNTLVWKYADAGHVCHLCHPNCTYGCTGPGLEGCPTNGPKIPSIATGMVGALLLLLVVALGIGLFMRRRHIVRKRTLRRLLQERELVEPLTPSGEAPNQALLRILKETEFKKIKVLGSGAFGTVYKGLWIPEGEKVKIPVAIKELREATSPKANKEILDEAYVMASVDNPHVCRLLGICLTSTVQLITQLMPFGCLLDYVREHKDNIGSQYLLNWCVQIAKGMNYLEDRRLVHRDLAARNVLVKTPQHVKITDFGLAKLLGAEEKEYHAEGGKVPIKWMALESILHRIYTHQSDVWSYGVTVWELMTFGSKPYDGIPASEISSILEKGERLPQPPICTIDVYMIMVKCWMIDADSRPKFRELIIEFSKMARDPQRYLVIQGDERMHLPSPTDSNFYRALMDEEDMDDVVDADEYLIPQQGFFSSPSTSRTPLLSSLSATSNNSTVACIDRNGLQSCPIKEDSFLQRYSSDPTGALTEDSIDDTFLPVPEYINQSVPKRPAGSVQNPVYHNQPLNPAPSRDPHYQDPHSTAVGNPEYLNTVQPTCVNSTFDSPAHWAQKGSHQISLDNPDYQQDFFPKEAKPNGIFKGSTAENAEYLRVAPQSSEFIGA

> <PDB ID(s) of Target Chain>
1IVO,1M14,1M17,1MOX,1XKK,1Z9I,2GS2,2GS6,2ITW,2ITX,2ITY,2J5E,2J5F,2J6M,2RF9,2RGP,3B2V,3BEL,3GOP,3POZ,3QWQ,3VJO,3W2O,3W2P,3W2Q,3W2R,3W2S,3W32,3W33,4G5J,4I23,4JQ7,4JQ8,4JR3,4JRV,4KRO,4LI5,4RJ4,4RJ5,4RJ6,4RJ7,4RJ8,4TKS,4UIP,4UV7,4WKQ,4WRG,4ZAU,5C8K,5C8M,5C8N,5CAL,5CAN,5CAO,5CAP,5CAQ,5CAS,5CAU,5CAV,5EDP,5EDQ,5EDR,5EM5,5EM6,5EM7,5EM8,5FED,5GNK,5HCX,5HCY,5HCZ,5HIB,5HIC,5UGB,5WB7,5WB8,5Y25,6S89,6S8A

> <UniProt (SwissProt) Recommended Name of Target Chain>
Epidermal growth factor receptor

> <UniProt (SwissProt) Entry Name of Target Chain>
EGFR_HUMAN

> <UniProt (SwissProt) Primary ID of Target Chain>
P00533

> <UniProt (SwissProt) Secondary ID(s) of Target Chain>
O00688,O00732,P06268,Q14225,Q68GS5,Q92795,Q9BZS2,Q9GZX1,Q9H2C9,Q9H3C9,Q9UMD7,Q9UMD8,Q9UMG5

> <UniProt (SwissProt) Alternative ID(s) of Target Chain>


> <UniProt (TrEMBL) Submitted Name of Target Chain>


> <UniProt (TrEMBL) Entry Name of Target Chain>


> <UniProt (TrEMBL) Primary ID of Target Chain>


> <UniProt (TrEMBL) Secondary ID(s) of Target Chain>


> <UniProt (TrEMBL) Alternative ID(s) of Target Chain>


> <training label>
6.50864

> <i_lp_mmshare_version>
54117

> <s_epik_input>
W0NIM11bQ0hdKFtDSDNdKVtOSF1bQ0gyXVtDSDJdT2MoW2NIXTEpYyhPW0NIM10pW2NIXWMoYzEyKW5bY0hdbmMyW05IXWMoW2NIXWMzQ2wpW2NIXVtjSF1jM0Y=

> <s_epik_cmdline>
J2VwaWtfcHl0aG9uJywgJy1waHQnLCAnMC4xJywgJy1waCcsICc3LjQnLCAnLXRuJywgJzgnLCAnLW1hJywgJzIwMCcsICctaW1hZScsICc8aW5maWxlLm1hZT4nLCAnLW9tYWUnLCAnPG91dGZpbGUubWFlPic=

> <r_lp_tautomer_probability>
1

> <r_epik_Ionization_Penalty>
  0.0067

> <r_epik_Ionization_Penalty_Charging>
  0.0064

> <r_epik_Ionization_Penalty_Neutral>
  0.0003

> <r_epik_State_Penalty>
  0.0000

> <r_epik_Charging_Adjusted_Penalty>
0.00637878532938816

> <i_epik_Tot_Q>
1

> <i_epik_Tot_abs_Q>
1

> <i_f3d_flags>
0

> <s_lp_Force_Field>
OPLS_2005

> <r_lp_Energy>
26.320517

> <b_lp_Chiralities_Consistent>
1

> <s_lp_Variant>
BindingDB_50102076_mol_1-1

> <s_i_glide_gridfile>
struct_1_site_1

> <i_i_glide_lignum>
118

> <i_i_glide_rotatable_bonds>
8

> <r_i_docking_score>
-7.32910663420161

> <r_i_glide_ligand_efficiency>
-0.261753808364343

> <r_i_glide_ligand_efficiency_sa>
-0.794838726942765

> <r_i_glide_ligand_efficiency_ln>
-1.69177300309518

> <r_i_glide_gscore>
-7.32910663420161

> <r_i_glide_lipo>
-2.94021400695441

> <r_i_glide_hbond>
-0.32

> <r_i_glide_metal>
0

> <r_i_glide_rewards>
-1.80004272119312

> <r_i_glide_evdw>
-41.2106590270996

> <r_i_glide_ecoul>
-5.69304323196411

> <r_i_glide_erotb>
0.715953884669433

> <r_i_glide_esite>
-0.0703143545739099

> <r_i_glide_emodel>
-62.114432665217

> <r_i_glide_energy>
-46.9037022590637

> <r_i_glide_einternal>
1.76829075813293

> <i_i_glide_confnum>
5

> <i_i_glide_posenum>
355

> <r_i_glide_eff_state_penalty>
0

> <IC50 (nM)>
310

> <PMID>
11459659

> <r_glide_shape_similarity>
0.874504566192627

> <s_m_subgroup_title>
505 training

> <s_m_subgroupid>
pocket_pv

> <b_m_subgroup_collapsed>
0

$$$$
BindingDB_50308825_mol_1
                    3D
 Schrodinger Suite 2021-2.
 47 49  0  0  1  0            999 V2000
   20.1025    0.5247   52.2034 C   0  0  0  0  0  0
   19.3372   -0.4259   52.8818 C   0  0  0  0  0  0
   19.9203   -1.2316   53.8599 C   0  0  0  0  0  0
   21.4821    0.6443   52.5002 C   0  0  0  0  0  0
   22.0672   -0.1694   53.4948 C   0  0  0  0  0  0
   21.2776   -1.1154   54.1843 C   0  0  0  0  0  0
   21.8113   -1.8909   55.1437 N   0  0  0  0  0  0
   23.1007   -1.7218   55.4068 C   0  0  0  0  0  0
   23.9359   -0.8798   54.8183 N   0  0  0  0  0  0
   23.4307   -0.0900   53.8586 C   0  0  0  0  0  0
   24.2839    0.8516   53.2712 N   0  0  0  0  0  0
   25.6772    0.9482   53.3409 C   0  0  0  0  0  0
   26.4979   -0.1926   53.3277 C   0  0  0  0  0  0
   27.8892   -0.0681   53.3794 C   0  0  0  0  0  0
   28.4682    1.2016   53.4554 C   0  0  0  0  0  0
   27.6643    2.3481   53.4294 C   0  0  0  0  0  0
   26.2703    2.2228   53.3667 C   0  0  0  0  0  0
   28.8797   -1.4743   53.3620 Cl  0  0  0  0  0  0
   19.3989    1.3012   51.3166 O   0  0  0  0  0  0
   18.0090   -0.5545   52.6002 O   0  0  0  0  0  0
   20.0748    2.1633   50.4369 C   0  0  0  0  0  0
   20.5902    1.3440   49.2653 C   0  0  0  0  0  0
   21.4892    2.1496   48.3324 C   0  0  0  0  0  0
   20.7393    3.2597   47.5842 C   0  0  0  0  0  0
   29.8025    1.3110   53.5568 F   0  0  0  0  0  0
   21.6516    3.9760   46.6047 C   0  0  0  0  0  0
   21.3979    4.0977   45.3221 C   0  0  0  0  0  0
   21.1426    4.2480   44.0435 C   0  0  0  0  0  0
   19.3200   -1.9501   54.3925 H   0  0  0  0  0  0
   22.0867    1.3684   51.9796 H   0  0  0  0  0  0
   23.5137   -2.3551   56.1753 H   0  0  0  0  0  0
   23.8208    1.6279   52.8333 H   0  0  0  0  0  0
   26.0640   -1.1793   53.2821 H   0  0  0  0  0  0
   28.1114    3.3318   53.4697 H   0  0  0  0  0  0
   25.6606    3.1166   53.3548 H   0  0  0  0  0  0
   17.5718   -1.2068   53.1181 H   0  0  0  0  0  0
   20.8561    2.7455   50.9256 H   0  0  0  0  0  0
   19.3478    2.8911   50.0791 H   0  0  0  0  0  0
   19.7496    0.9262   48.7109 H   0  0  0  0  0  0
   21.1647    0.4954   49.6348 H   0  0  0  0  0  0
   21.9362    1.4638   47.6133 H   0  0  0  0  0  0
   22.3200    2.5763   48.8954 H   0  0  0  0  0  0
   20.3559    4.0005   48.2844 H   0  0  0  0  0  0
   19.8790    2.8418   47.0603 H   0  0  0  0  0  0
   22.5555    4.4006   47.0199 H   0  0  0  0  0  0
   21.4750    3.5345   43.3027 H   0  0  0  0  0  0
   20.5892    5.0988   43.6733 H   0  0  0  0  0  0
  1  2  2  0  0  0
  1  4  1  0  0  0
  1 19  1  0  0  0
  2  3  1  0  0  0
  2 20  1  0  0  0
  3  6  2  0  0  0
  3 29  1  0  0  0
  4  5  2  0  0  0
  4 30  1  0  0  0
  5  6  1  0  0  0
  5 10  1  0  0  0
  6  7  1  0  0  0
  7  8  2  0  0  0
  8  9  1  0  0  0
  8 31  1  0  0  0
  9 10  2  0  0  0
 10 11  1  0  0  0
 11 12  1  0  0  0
 11 32  1  0  0  0
 12 13  1  0  0  0
 12 17  2  0  0  0
 13 14  2  0  0  0
 13 33  1  0  0  0
 14 15  1  0  0  0
 14 18  1  0  0  0
 15 16  2  0  0  0
 15 25  1  0  0  0
 16 17  1  0  0  0
 16 34  1  0  0  0
 17 35  1  0  0  0
 19 21  1  0  0  0
 20 36  1  0  0  0
 21 22  1  0  0  0
 21 37  1  0  0  0
 21 38  1  0  0  0
 22 23  1  0  0  0
 22 39  1  0  0  0
 22 40  1  0  0  0
 23 24  1  0  0  0
 23 41  1  0  0  0
 23 42  1  0  0  0
 24 26  1  0  0  0
 24 43  1  0  0  0
 24 44  1  0  0  0
 26 27  2  0  0  0
 26 45  1  0  0  0
 27 28  2  0  0  0
 28 46  1  0  0  0
 28 47  1  0  0  0
M  END
> <s_m_entry_id>
343

> <s_m_entry_name>
pocket_pv.154

> <s_m_Source_Path>
/home/bortolaa/Project/GT/mario-master/docking/set505protein_struct_1_site_1_set505ligs_train

> <s_m_Source_File>
pocket_pv.maegz

> <i_m_Source_File_Index>
154

> <From>
www.bindingDB.org

> <BindingDB Reactant_set_id>
50554728

> <Ligand InChI>
InChI=1S/C21H19ClFN3O2/c1-2-3-4-5-6-9-28-20-11-15-18(12-19(20)27)24-13-25-21(15)26-14-7-8-17(23)16(22)10-14/h3,7-8,10-13,27H,1,4-6,9H2,(H,24,25,26)

> <Ligand InChI Key>
QKSLQDKGPPYGOY-UHFFFAOYSA-N

> <BindingDB MonomerID>
50308825

> <BindingDB Ligand Name>
4-(3'-chloro-4'-fluorophenylamino)-6-(hepta-5,6-dienyloxy)-7-methoxyquinazoline::CHEMBL591040

> <Target Name Assigned by Curator or DataSource>
Epidermal growth factor receptor

> <Target Source Organism According to Curator or DataSource>
Homo sapiens

> <Ki (nM)>


> <Kd (nM)>


> <EC50 (nM)>


> <kon (M-1-s-1)>


> <koff (s-1)>


> <pH>


> <Temp C>


> <Curation/DataSource>
ChEMBL

> <Article DOI>
10.1016/j.bmc.2009.11.035

> <PubChem AID>


> <Patent Number>


> <Authors>
Ban, HS; Tanaka, Y; Nabeyama, W; Hatori, M; Nakamura, H

> <Institution>
Gakushuin University

> <Link to Ligand in BindingDB>
http://www.bindingdb.org/bind/chemsearch/marvin/MolStructure.jsp?monomerid=50308825

> <Link to Ligand-Target Pair in BindingDB>
http://www.bindingdb.org/jsp/dbsearch/PrimarySearch_ki.jsp?energyterm=kJ/mole&tag=r21&monomerid=50308825&enzyme=Epidermal+growth+factor+receptor&column=ki&startPg=0&Increment=50&submit=Search

> <Ligand HET ID in PDB>


> <PDB ID(s) for Ligand-Target Complex>


> <PubChem CID>
46229770

> <PubChem SID>
104163186

> <ChEBI ID of Ligand>


> <ChEMBL ID of Ligand>
CHEMBL591040

> <DrugBank ID of Ligand>


> <IUPHAR_GRAC ID of Ligand>


> <KEGG ID of Ligand>


> <ZINC ID of Ligand>
ZINC45336958

> <Number of Protein Chains in Target (>
1

> <BindingDB Target Chain Sequence>
MRPSGTAGAALLALLAALCPASRALEEKKVCQGTSNKLTQLGTFEDHFLSLQRMFNNCEVVLGNLEITYVQRNYDLSFLKTIQEVAGYVLIALNTVERIPLENLQIIRGNMYYENSYALAVLSNYDANKTGLKELPMRNLQEILHGAVRFSNNPALCNVESIQWRDIVSSDFLSNMSMDFQNHLGSCQKCDPSCPNGSCWGAGEENCQKLTKIICAQQCSGRCRGKSPSDCCHNQCAAGCTGPRESDCLVCRKFRDEATCKDTCPPLMLYNPTTYQMDVNPEGKYSFGATCVKKCPRNYVVTDHGSCVRACGADSYEMEEDGVRKCKKCEGPCRKVCNGIGIGEFKDSLSINATNIKHFKNCTSISGDLHILPVAFRGDSFTHTPPLDPQELDILKTVKEITGFLLIQAWPENRTDLHAFENLEIIRGRTKQHGQFSLAVVSLNITSLGLRSLKEISDGDVIISGNKNLCYANTINWKKLFGTSGQKTKIISNRGENSCKATGQVCHALCSPEGCWGPEPRDCVSCRNVSRGRECVDKCNLLEGEPREFVENSECIQCHPECLPQAMNITCTGRGPDNCIQCAHYIDGPHCVKTCPAGVMGENNTLVWKYADAGHVCHLCHPNCTYGCTGPGLEGCPTNGPKIPSIATGMVGALLLLLVVALGIGLFMRRRHIVRKRTLRRLLQERELVEPLTPSGEAPNQALLRILKETEFKKIKVLGSGAFGTVYKGLWIPEGEKVKIPVAIKELREATSPKANKEILDEAYVMASVDNPHVCRLLGICLTSTVQLITQLMPFGCLLDYVREHKDNIGSQYLLNWCVQIAKGMNYLEDRRLVHRDLAARNVLVKTPQHVKITDFGLAKLLGAEEKEYHAEGGKVPIKWMALESILHRIYTHQSDVWSYGVTVWELMTFGSKPYDGIPASEISSILEKGERLPQPPICTIDVYMIMVKCWMIDADSRPKFRELIIEFSKMARDPQRYLVIQGDERMHLPSPTDSNFYRALMDEEDMDDVVDADEYLIPQQGFFSSPSTSRTPLLSSLSATSNNSTVACIDRNGLQSCPIKEDSFLQRYSSDPTGALTEDSIDDTFLPVPEYINQSVPKRPAGSVQNPVYHNQPLNPAPSRDPHYQDPHSTAVGNPEYLNTVQPTCVNSTFDSPAHWAQKGSHQISLDNPDYQQDFFPKEAKPNGIFKGSTAENAEYLRVAPQSSEFIGA

> <PDB ID(s) of Target Chain>
1IVO,1M14,1M17,1MOX,1XKK,1Z9I,2GS2,2GS6,2ITW,2ITX,2ITY,2J5E,2J5F,2J6M,2RF9,2RGP,3B2V,3BEL,3GOP,3POZ,3QWQ,3VJO,3W2O,3W2P,3W2Q,3W2R,3W2S,3W32,3W33,4G5J,4I23,4JQ7,4JQ8,4JR3,4JRV,4KRO,4LI5,4RJ4,4RJ5,4RJ6,4RJ7,4RJ8,4TKS,4UIP,4UV7,4WKQ,4WRG,4ZAU,5C8K,5C8M,5C8N,5CAL,5CAN,5CAO,5CAP,5CAQ,5CAS,5CAU,5CAV,5EDP,5EDQ,5EDR,5EM5,5EM6,5EM7,5EM8,5FED,5GNK,5HCX,5HCY,5HCZ,5HIB,5HIC,5UGB,5WB7,5WB8,5Y25,6S89,6S8A

> <UniProt (SwissProt) Recommended Name of Target Chain>
Epidermal growth factor receptor

> <UniProt (SwissProt) Entry Name of Target Chain>
EGFR_HUMAN

> <UniProt (SwissProt) Primary ID of Target Chain>
P00533

> <UniProt (SwissProt) Secondary ID(s) of Target Chain>
O00688,O00732,P06268,Q14225,Q68GS5,Q92795,Q9BZS2,Q9GZX1,Q9H2C9,Q9H3C9,Q9UMD7,Q9UMD8,Q9UMG5

> <UniProt (SwissProt) Alternative ID(s) of Target Chain>


> <UniProt (TrEMBL) Submitted Name of Target Chain>


> <UniProt (TrEMBL) Entry Name of Target Chain>


> <UniProt (TrEMBL) Primary ID of Target Chain>


> <UniProt (TrEMBL) Secondary ID(s) of Target Chain>


> <UniProt (TrEMBL) Alternative ID(s) of Target Chain>


> <training label>
7.18376

> <i_lp_mmshare_version>
54117

> <s_epik_input>
W0NIMl09Qz1bQ0hdW0NIMl1bQ0gyXVtDSDJdW0NIMl1PYyhbY0hdMSljKFtPSF0pW2NIXWMoYzEyKW5bY0hdbmMyW05IXWMzW2NIXWMoQ2wpYyhGKVtjSF1bY0hdMw==

> <s_epik_cmdline>
J2VwaWtfcHl0aG9uJywgJy1waHQnLCAnMC4xJywgJy1waCcsICc3LjQnLCAnLXRuJywgJzgnLCAnLW1hJywgJzIwMCcsICctaW1hZScsICc8aW5maWxlLm1hZT4nLCAnLW9tYWUnLCAnPG91dGZpbGUubWFlPic=

> <r_epik_Ionization_Penalty>
  0.0895

> <r_epik_Ionization_Penalty_Charging>
  0.0000

> <r_epik_Ionization_Penalty_Neutral>
  0.0895

> <r_epik_State_Penalty>
  0.0797

> <r_epik_Charging_Adjusted_Penalty>
0.0796559212692142

> <i_epik_Tot_Q>
0

> <i_epik_Tot_abs_Q>
0

> <i_f3d_flags>
0

> <s_lp_Force_Field>
OPLS_2005

> <r_lp_Energy>
-5.587057

> <b_lp_Chiralities_Consistent>
1

> <s_lp_Variant>
BindingDB_50308825_mol_1-1

> <s_i_glide_gridfile>
struct_1_site_1

> <i_i_glide_lignum>
181

> <i_i_glide_rotatable_bonds>
9

> <r_i_docking_score>
-7.32177562634555

> <r_i_glide_ligand_efficiency>
-0.261491986655198

> <r_i_glide_ligand_efficiency_sa>
-0.794043682029061

> <r_i_glide_ligand_efficiency_ln>
-1.69008079123426

> <r_i_glide_gscore>
-7.40147562634555

> <r_i_glide_lipo>
-3.33317858359593

> <r_i_glide_hbond>
-0.32

> <r_i_glide_metal>
0

> <r_i_glide_rewards>
-1.8550477344939

> <r_i_glide_evdw>
-43.6170082092285

> <r_i_glide_ecoul>
-4.19055080413818

> <r_i_glide_erotb>
0.980681423786585

> <r_i_glide_esite>
-0.0644977009601572

> <r_i_glide_emodel>
-50.4854568020856

> <r_i_glide_energy>
-47.8075590133667

> <r_i_glide_einternal>
4.87380361557007

> <i_i_glide_confnum>
181

> <i_i_glide_posenum>
210

> <r_i_glide_eff_state_penalty>
0.0797

> <IC50 (nM)>
65.5

> <PMID>
19969465

> <r_glide_shape_similarity>
0.824015438556671

> <s_m_subgroup_title>
505 training

> <s_m_subgroupid>
pocket_pv

> <b_m_subgroup_collapsed>
0

$$$$
BindingDB_50308830_mol_1
                    3D
 Schrodinger Suite 2021-2.
 44 46  0  0  1  0            999 V2000
   20.1873    0.5250   52.1410 C   0  0  0  0  0  0
   19.3543   -0.3760   52.8222 C   0  0  0  0  0  0
   19.9075   -1.1992   53.8334 C   0  0  0  0  0  0
   21.5307    0.6452   52.5169 C   0  0  0  0  0  0
   22.0778   -0.1734   53.5103 C   0  0  0  0  0  0
   21.2701   -1.1136   54.1809 C   0  0  0  0  0  0
   21.8011   -1.8955   55.1385 N   0  0  0  0  0  0
   23.0932   -1.7388   55.4099 C   0  0  0  0  0  0
   23.9386   -0.9017   54.8257 N   0  0  0  0  0  0
   23.4397   -0.1004   53.8711 C   0  0  0  0  0  0
   24.2900    0.8467   53.2804 N   0  0  0  0  0  0
   25.6838    0.9476   53.3440 C   0  0  0  0  0  0
   26.5146   -0.1887   53.3342 C   0  0  0  0  0  0
   27.9106   -0.0502   53.3829 C   0  0  0  0  0  0
   28.4908    1.2239   53.4376 C   0  0  0  0  0  0
   27.6691    2.3590   53.4231 C   0  0  0  0  0  0
   26.2730    2.2236   53.3695 C   0  0  0  0  0  0
   28.9099   -1.4459   53.3752 Cl  0  0  0  0  0  0
   19.6633    1.3031   51.1438 O   0  0  0  0  0  0
   20.4561    1.4554   49.9704 C   0  0  0  0  0  0
   18.0385   -0.3847   52.4258 O   0  0  0  0  0  0
   17.1073   -1.0954   53.2099 C   0  0  0  0  0  0
   19.8593    2.5816   49.1539 C   0  0  0  0  0  0
   18.4738    2.1992   48.6385 C   0  0  0  0  0  0
   17.4905    3.2588   48.8553 C   0  0  0  0  0  0
   16.7462    4.1970   49.0865 C   0  0  0  0  0  0
   19.2936   -1.9059   54.3695 H   0  0  0  0  0  0
   22.1592    1.3788   52.0436 H   0  0  0  0  0  0
   23.5017   -2.3779   56.1778 H   0  0  0  0  0  0
   23.8240    1.6208   52.8388 H   0  0  0  0  0  0
   26.0870   -1.1794   53.2849 H   0  0  0  0  0  0
   29.5660    1.3340   53.4793 H   0  0  0  0  0  0
   28.1078    3.3464   53.4546 H   0  0  0  0  0  0
   25.6621    3.1160   53.3616 H   0  0  0  0  0  0
   20.4532    0.5277   49.3968 H   0  0  0  0  0  0
   21.5039    1.7005   50.1470 H   0  0  0  0  0  0
   16.0994   -0.9050   52.8405 H   0  0  0  0  0  0
   17.2840   -2.1702   53.1528 H   0  0  0  0  0  0
   17.1396   -0.7836   54.2540 H   0  0  0  0  0  0
   20.5094    2.8170   48.3085 H   0  0  0  0  0  0
   19.8400    3.4830   49.7706 H   0  0  0  0  0  0
   18.0785    1.3040   49.1256 H   0  0  0  0  0  0
   18.5177    1.9569   47.5758 H   0  0  0  0  0  0
   16.1657    5.0706   49.3018 H   0  0  0  0  0  0
  1  2  2  0  0  0
  1  4  1  0  0  0
  1 19  1  0  0  0
  2  3  1  0  0  0
  2 21  1  0  0  0
  3  6  2  0  0  0
  3 27  1  0  0  0
  4  5  2  0  0  0
  4 28  1  0  0  0
  5  6  1  0  0  0
  5 10  1  0  0  0
  6  7  1  0  0  0
  7  8  2  0  0  0
  8  9  1  0  0  0
  8 29  1  0  0  0
  9 10  2  0  0  0
 10 11  1  0  0  0
 11 12  1  0  0  0
 11 30  1  0  0  0
 12 13  2  0  0  0
 12 17  1  0  0  0
 13 14  1  0  0  0
 13 31  1  0  0  0
 14 15  2  0  0  0
 14 18  1  0  0  0
 15 16  1  0  0  0
 15 32  1  0  0  0
 16 17  2  0  0  0
 16 33  1  0  0  0
 17 34  1  0  0  0
 19 20  1  0  0  0
 20 23  1  0  0  0
 20 35  1  0  0  0
 20 36  1  0  0  0
 21 22  1  0  0  0
 22 37  1  0  0  0
 22 38  1  0  0  0
 22 39  1  0  0  0
 23 24  1  0  0  0
 23 40  1  0  0  0
 23 41  1  0  0  0
 24 25  1  0  0  0
 24 42  1  0  0  0
 24 43  1  0  0  0
 25 26  3  0  0  0
 26 44  1  0  0  0
M  END
> <s_m_entry_id>
344

> <s_m_entry_name>
pocket_pv.155

> <s_m_Source_Path>
/home/bortolaa/Project/GT/mario-master/docking/set505protein_struct_1_site_1_set505ligs_train

> <s_m_Source_File>
pocket_pv.maegz

> <i_m_Source_File_Index>
155

> <From>
www.bindingDB.org

> <BindingDB Reactant_set_id>
50554733

> <Ligand InChI>
InChI=1S/C20H18ClN3O2/c1-3-4-5-9-26-19-11-16-17(12-18(19)25-2)22-13-23-20(16)24-15-8-6-7-14(21)10-15/h1,6-8,10-13H,4-5,9H2,2H3,(H,22,23,24)

> <Ligand InChI Key>
BHLKTDQPSGRIAY-UHFFFAOYSA-N

> <BindingDB MonomerID>
50308830

> <BindingDB Ligand Name>
4-(3'-Chloroanilino)-7-methoxy-6-(pent-4-ynyloxy)quinazoline::CHEMBL592713

> <Target Name Assigned by Curator or DataSource>
Epidermal growth factor receptor

> <Target Source Organism According to Curator or DataSource>
Homo sapiens

> <Ki (nM)>


> <Kd (nM)>


> <EC50 (nM)>


> <kon (M-1-s-1)>


> <koff (s-1)>


> <pH>


> <Temp C>


> <Curation/DataSource>
ChEMBL

> <Article DOI>
10.1016/j.bmc.2009.11.035

> <PubChem AID>


> <Patent Number>


> <Authors>
Ban, HS; Tanaka, Y; Nabeyama, W; Hatori, M; Nakamura, H

> <Institution>
Gakushuin University

> <Link to Ligand in BindingDB>
http://www.bindingdb.org/bind/chemsearch/marvin/MolStructure.jsp?monomerid=50308830

> <Link to Ligand-Target Pair in BindingDB>
http://www.bindingdb.org/jsp/dbsearch/PrimarySearch_ki.jsp?energyterm=kJ/mole&tag=r21&monomerid=50308830&enzyme=Epidermal+growth+factor+receptor&column=ki&startPg=0&Increment=50&submit=Search

> <Ligand HET ID in PDB>


> <PDB ID(s) for Ligand-Target Complex>


> <PubChem CID>
46230531

> <PubChem SID>
104163191

> <ChEBI ID of Ligand>


> <ChEMBL ID of Ligand>
CHEMBL592713

> <DrugBank ID of Ligand>


> <IUPHAR_GRAC ID of Ligand>


> <KEGG ID of Ligand>


> <ZINC ID of Ligand>
ZINC45353900

> <Number of Protein Chains in Target (>
1

> <BindingDB Target Chain Sequence>
MRPSGTAGAALLALLAALCPASRALEEKKVCQGTSNKLTQLGTFEDHFLSLQRMFNNCEVVLGNLEITYVQRNYDLSFLKTIQEVAGYVLIALNTVERIPLENLQIIRGNMYYENSYALAVLSNYDANKTGLKELPMRNLQEILHGAVRFSNNPALCNVESIQWRDIVSSDFLSNMSMDFQNHLGSCQKCDPSCPNGSCWGAGEENCQKLTKIICAQQCSGRCRGKSPSDCCHNQCAAGCTGPRESDCLVCRKFRDEATCKDTCPPLMLYNPTTYQMDVNPEGKYSFGATCVKKCPRNYVVTDHGSCVRACGADSYEMEEDGVRKCKKCEGPCRKVCNGIGIGEFKDSLSINATNIKHFKNCTSISGDLHILPVAFRGDSFTHTPPLDPQELDILKTVKEITGFLLIQAWPENRTDLHAFENLEIIRGRTKQHGQFSLAVVSLNITSLGLRSLKEISDGDVIISGNKNLCYANTINWKKLFGTSGQKTKIISNRGENSCKATGQVCHALCSPEGCWGPEPRDCVSCRNVSRGRECVDKCNLLEGEPREFVENSECIQCHPECLPQAMNITCTGRGPDNCIQCAHYIDGPHCVKTCPAGVMGENNTLVWKYADAGHVCHLCHPNCTYGCTGPGLEGCPTNGPKIPSIATGMVGALLLLLVVALGIGLFMRRRHIVRKRTLRRLLQERELVEPLTPSGEAPNQALLRILKETEFKKIKVLGSGAFGTVYKGLWIPEGEKVKIPVAIKELREATSPKANKEILDEAYVMASVDNPHVCRLLGICLTSTVQLITQLMPFGCLLDYVREHKDNIGSQYLLNWCVQIAKGMNYLEDRRLVHRDLAARNVLVKTPQHVKITDFGLAKLLGAEEKEYHAEGGKVPIKWMALESILHRIYTHQSDVWSYGVTVWELMTFGSKPYDGIPASEISSILEKGERLPQPPICTIDVYMIMVKCWMIDADSRPKFRELIIEFSKMARDPQRYLVIQGDERMHLPSPTDSNFYRALMDEEDMDDVVDADEYLIPQQGFFSSPSTSRTPLLSSLSATSNNSTVACIDRNGLQSCPIKEDSFLQRYSSDPTGALTEDSIDDTFLPVPEYINQSVPKRPAGSVQNPVYHNQPLNPAPSRDPHYQDPHSTAVGNPEYLNTVQPTCVNSTFDSPAHWAQKGSHQISLDNPDYQQDFFPKEAKPNGIFKGSTAENAEYLRVAPQSSEFIGA

> <PDB ID(s) of Target Chain>
1IVO,1M14,1M17,1MOX,1XKK,1Z9I,2GS2,2GS6,2ITW,2ITX,2ITY,2J5E,2J5F,2J6M,2RF9,2RGP,3B2V,3BEL,3GOP,3POZ,3QWQ,3VJO,3W2O,3W2P,3W2Q,3W2R,3W2S,3W32,3W33,4G5J,4I23,4JQ7,4JQ8,4JR3,4JRV,4KRO,4LI5,4RJ4,4RJ5,4RJ6,4RJ7,4RJ8,4TKS,4UIP,4UV7,4WKQ,4WRG,4ZAU,5C8K,5C8M,5C8N,5CAL,5CAN,5CAO,5CAP,5CAQ,5CAS,5CAU,5CAV,5EDP,5EDQ,5EDR,5EM5,5EM6,5EM7,5EM8,5FED,5GNK,5HCX,5HCY,5HCZ,5HIB,5HIC,5UGB,5WB7,5WB8,5Y25,6S89,6S8A

> <UniProt (SwissProt) Recommended Name of Target Chain>
Epidermal growth factor receptor

> <UniProt (SwissProt) Entry Name of Target Chain>
EGFR_HUMAN

> <UniProt (SwissProt) Primary ID of Target Chain>
P00533

> <UniProt (SwissProt) Secondary ID(s) of Target Chain>
O00688,O00732,P06268,Q14225,Q68GS5,Q92795,Q9BZS2,Q9GZX1,Q9H2C9,Q9H3C9,Q9UMD7,Q9UMD8,Q9UMG5

> <UniProt (SwissProt) Alternative ID(s) of Target Chain>


> <UniProt (TrEMBL) Submitted Name of Target Chain>


> <UniProt (TrEMBL) Entry Name of Target Chain>


> <UniProt (TrEMBL) Primary ID of Target Chain>


> <UniProt (TrEMBL) Secondary ID(s) of Target Chain>


> <UniProt (TrEMBL) Alternative ID(s) of Target Chain>


> <training label>
7.75203

> <i_lp_mmshare_version>
54117

> <s_epik_input>
W0NIXSNDW0NIMl1bQ0gyXVtDSDJdT2MoW2NIXTEpYyhPW0NIM10pW2NIXWMoYzEyKW5bY0hdbmMyW05IXWMzW2NIXWMoQ2wpW2NIXVtjSF1bY0hdMw==

> <s_epik_cmdline>
J2VwaWtfcHl0aG9uJywgJy1waHQnLCAnMC4xJywgJy1waCcsICc3LjQnLCAnLXRuJywgJzgnLCAnLW1hJywgJzIwMCcsICctaW1hZScsICc8aW5maWxlLm1hZT4nLCAnLW9tYWUnLCAnPG91dGZpbGUubWFlPic=

> <r_lp_tautomer_probability>
1

> <r_epik_Ionization_Penalty>
  0.0005

> <r_epik_Ionization_Penalty_Charging>
  0.0000

> <r_epik_Ionization_Penalty_Neutral>
  0.0005

> <r_epik_State_Penalty>
  0.0000

> <r_epik_Charging_Adjusted_Penalty>
0

> <i_epik_Tot_Q>
0

> <i_epik_Tot_abs_Q>
0

> <i_f3d_flags>
0

> <s_lp_Force_Field>
OPLS_2005

> <r_lp_Energy>
20.380834

> <b_lp_Chiralities_Consistent>
1

> <s_lp_Variant>
BindingDB_50308830_mol_1-1

> <s_i_glide_gridfile>
struct_1_site_1

> <i_i_glide_lignum>
213

> <i_i_glide_rotatable_bonds>
8

> <r_i_docking_score>
-7.3033440319819

> <r_i_glide_ligand_efficiency>
-0.280897847383919

> <r_i_glide_ligand_efficiency_sa>
-0.832158767595203

> <r_i_glide_ligand_efficiency_ln>
-1.71516638168457

> <r_i_glide_gscore>
-7.3033440319819

> <r_i_glide_lipo>
-2.97734022117658

> <r_i_glide_hbond>
-0.32

> <r_i_glide_metal>
0

> <r_i_glide_rewards>
-2.05903591455648

> <r_i_glide_evdw>
-40.9894790649414

> <r_i_glide_ecoul>
-5.96079683303833

> <r_i_glide_erotb>
0.996625581953984

> <r_i_glide_esite>
0

> <r_i_glide_emodel>
-57.0019237727732

> <r_i_glide_energy>
-46.9502758979797

> <r_i_glide_einternal>
3.9805006980896

> <i_i_glide_confnum>
25

> <i_i_glide_posenum>
151

> <r_i_glide_eff_state_penalty>
0

> <IC50 (nM)>
17.7

> <PMID>
19969465

> <r_glide_shape_similarity>
0.88202691078186

> <s_m_subgroup_title>
505 training

> <s_m_subgroupid>
pocket_pv

> <b_m_subgroup_collapsed>
0

$$$$
/home/bortolaa/Project/GT/mario-master/ligands/set505ligs_train.sdf:252
                    3D
 Schrodinger Suite 2021-2.
 82 86  0  0  1  0            999 V2000
   14.1157   -2.8767   52.5216 C   0  0  0  0  0  0
   12.9959   -2.1583   52.0333 C   0  0  0  0  0  0
   13.1689   -0.8048   51.6351 C   0  0  0  0  0  0
   15.3820   -2.2347   52.5747 C   0  0  0  0  0  0
   15.5330   -0.8825   52.1807 C   0  0  0  0  0  0
   14.4154   -0.1484   51.7207 C   0  0  0  0  0  0
   14.5460    1.1381   51.3301 N   0  0  0  0  0  0
   15.7662    1.6748   51.3728 C   0  0  0  0  0  0
   16.8823    1.0710   51.7766 N   0  0  0  0  0  0
   16.7761   -0.2060   52.1954 C   0  0  0  0  0  0
   17.9067   -0.8800   52.6725 N   0  0  0  0  0  0
   19.2292   -0.4663   52.8302 C   0  0  0  0  0  0
   19.9791   -1.1374   53.8181 C   0  0  0  0  0  0
   21.3133   -0.7821   54.0787 C   0  0  0  0  0  0
   21.8863    0.2744   53.3173 C   0  0  0  0  0  0
   21.1483    0.9084   52.2985 C   0  0  0  0  0  0
   19.8298    0.5302   52.0357 C   0  0  0  0  0  0
   23.1619    0.8172   53.5311 N   0  0  0  0  0  0
   24.2942    0.1347   53.4702 C   0  0  0  0  0  0
   25.3339    0.9383   53.1963 N   0  0  0  0  0  0
   24.3587   -1.0765   53.6475 O   0  0  0  0  0  0
   26.6895    0.5647   53.2547 C   0  0  0  0  0  0
   27.1159   -0.7750   53.0820 C   0  0  0  0  0  0
   28.4407   -1.1453   53.3284 C   0  0  0  0  0  0
   29.3633   -0.1340   53.6578 C   0  0  0  0  0  0
   28.9689    1.2220   53.7243 C   0  0  0  0  0  0
   27.6259    1.5781   53.5247 C   0  0  0  0  0  0
   13.9142   -4.1921   52.9068 O   0  0  0  0  0  0
   14.9574   -4.8667   53.6053 C   0  0  0  0  0  0
   11.7857   -2.8362   51.9655 O   0  0  0  0  0  0
   10.6540   -2.1855   51.3844 C   0  0  0  0  0  0
    9.9820   -1.1998   52.3693 C   0  0  0  0  0  0
    9.0996   -0.1378   51.6739 C   0  0  0  0  0  0
    9.8787    0.7783   50.8265 N   0  0  2  0  0  0
   10.6443    1.7389   51.6390 C   0  0  0  0  0  0
   11.5167    2.6249   50.7194 C   0  0  0  0  0  0
   10.6593    3.3843   49.7745 N   0  3  0  0  0  0
    9.7786    2.4606   49.0097 C   0  0  0  0  0  0
    8.9675    1.5577   49.9745 C   0  0  0  0  0  0
   11.4131    4.3337   48.9228 C   0  0  0  0  0  0
   22.1329   -1.6282   55.3518 Cl  0  0  0  0  0  0
   28.8211   -2.6200   53.2554 C   0  0  0  0  0  0
   30.7896   -0.5030   53.9241 C   0  0  0  0  0  0
   12.3510   -0.2478   51.2229 H   0  0  0  0  0  0
   16.2400   -2.7847   52.9254 H   0  0  0  0  0  0
   15.8592    2.6998   51.0463 H   0  0  0  0  0  0
   17.6908   -1.7385   53.1515 H   0  0  0  0  0  0
   19.5213   -1.9171   54.4085 H   0  0  0  0  0  0
   21.5959    1.6957   51.7081 H   0  0  0  0  0  0
   19.3017    1.0198   51.2310 H   0  0  0  0  0  0
   23.2458    1.8068   53.3562 H   0  0  0  0  0  0
   25.1578    1.9275   53.0981 H   0  0  0  0  0  0
   26.4375   -1.5634   52.8003 H   0  0  0  0  0  0
   29.6957    1.9850   53.9596 H   0  0  0  0  0  0
   27.3225    2.6123   53.6216 H   0  0  0  0  0  0
   14.5935   -5.8387   53.9367 H   0  0  0  0  0  0
   15.8229   -5.0350   52.9613 H   0  0  0  0  0  0
   15.2717   -4.3067   54.4906 H   0  0  0  0  0  0
    9.9320   -2.9553   51.1086 H   0  0  0  0  0  0
   10.9307   -1.7086   50.4441 H   0  0  0  0  0  0
   10.7304   -0.7171   52.9944 H   0  0  0  0  0  0
    9.3719   -1.7721   53.0666 H   0  0  0  0  0  0
    8.5393    0.4345   52.4157 H   0  0  0  0  0  0
    8.3593   -0.6582   51.0657 H   0  0  0  0  0  0
   11.2880    1.2367   52.3565 H   0  0  0  0  0  0
    9.9540    2.3351   52.2298 H   0  0  0  0  0  0
   12.0966    3.3224   51.3282 H   0  0  0  0  0  0
   12.2316    2.0153   50.1616 H   0  0  0  0  0  0
    9.0939    3.0439   48.3925 H   0  0  0  0  0  0
   10.3817    1.8482   48.3356 H   0  0  0  0  0  0
    8.2950    2.1602   50.5893 H   0  0  0  0  0  0
    8.3450    0.8783   49.3874 H   0  0  0  0  0  0
   12.1030    3.8025   48.2637 H   0  0  0  0  0  0
   10.7319    4.9211   48.3067 H   0  0  0  0  0  0
   11.9917    5.0289   49.5367 H   0  0  0  0  0  0
   29.4884   -2.8225   52.4211 H   0  0  0  0  0  0
   29.3123   -2.9374   54.1745 H   0  0  0  0  0  0
   27.9390   -3.2504   53.1316 H   0  0  0  0  0  0
   30.9084   -0.8862   54.9366 H   0  0  0  0  0  0
   31.0887   -1.2673   53.2198 H   0  0  0  0  0  0
   31.4455    0.3541   53.7825 H   0  0  0  0  0  0
   10.0484    3.9263   50.4041 H   0  0  0  0  0  0
  1  2  2  0  0  0
  1  4  1  0  0  0
  1 28  1  0  0  0
  2  3  1  0  0  0
  2 30  1  0  0  0
  3  6  2  0  0  0
  3 44  1  0  0  0
  4  5  2  0  0  0
  4 45  1  0  0  0
  5  6  1  0  0  0
  5 10  1  0  0  0
  6  7  1  0  0  0
  7  8  2  0  0  0
  8  9  1  0  0  0
  8 46  1  0  0  0
  9 10  2  0  0  0
 10 11  1  0  0  0
 11 12  1  0  0  0
 11 47  1  0  0  0
 12 13  2  0  0  0
 12 17  1  0  0  0
 13 14  1  0  0  0
 13 48  1  0  0  0
 14 15  2  0  0  0
 14 41  1  0  0  0
 15 16  1  0  0  0
 15 18  1  0  0  0
 16 17  2  0  0  0
 16 49  1  0  0  0
 17 50  1  0  0  0
 18 19  1  0  0  0
 18 51  1  0  0  0
 19 20  1  0  0  0
 19 21  2  0  0  0
 20 22  1  0  0  0
 20 52  1  0  0  0
 22 23  2  0  0  0
 22 27  1  0  0  0
 23 24  1  0  0  0
 23 53  1  0  0  0
 24 25  2  0  0  0
 24 42  1  0  0  0
 25 26  1  0  0  0
 25 43  1  0  0  0
 26 27  2  0  0  0
 26 54  1  0  0  0
 27 55  1  0  0  0
 28 29  1  0  0  0
 29 56  1  0  0  0
 29 57  1  0  0  0
 29 58  1  0  0  0
 30 31  1  0  0  0
 31 32  1  0  0  0
 31 59  1  0  0  0
 31 60  1  0  0  0
 32 33  1  0  0  0
 32 61  1  0  0  0
 32 62  1  0  0  0
 33 34  1  0  0  0
 33 63  1  0  0  0
 33 64  1  0  0  0
 34 35  1  0  0  0
 34 39  1  0  0  0
 35 36  1  0  0  0
 35 65  1  0  0  0
 35 66  1  0  0  0
 36 37  1  0  0  0
 36 67  1  0  0  0
 36 68  1  0  0  0
 37 38  1  0  0  0
 37 40  1  0  0  0
 37 82  1  0  0  0
 38 39  1  0  0  0
 38 69  1  0  0  0
 38 70  1  0  0  0
 39 71  1  0  0  0
 39 72  1  0  0  0
 40 73  1  0  0  0
 40 74  1  0  0  0
 40 75  1  0  0  0
 42 76  1  0  0  0
 42 77  1  0  0  0
 42 78  1  0  0  0
 43 79  1  0  0  0
 43 80  1  0  0  0
 43 81  1  0  0  0
M  CHG  1  37   1
M  END
> <s_m_entry_id>
345

> <s_m_entry_name>
pocket_pv.156

> <s_m_Source_Path>
/home/bortolaa/Project/GT/mario-master/docking/set505protein_struct_1_site_1_set505ligs_train

> <s_m_Source_File>
pocket_pv.maegz

> <i_m_Source_File_Index>
156

> <From>
www.bindingDB.org

> <BindingDB Reactant_set_id>
50553194

> <Ligand InChI>
InChI=1S/C32H38ClN7O3/c1-21-6-7-23(16-22(21)2)37-32(41)38-27-9-8-24(17-26(27)33)36-31-25-18-29(42-4)30(19-28(25)34-20-35-31)43-15-5-10-40-13-11-39(3)12-14-40/h6-9,16-20H,5,10-15H2,1-4H3,(H,34,35,36)(H2,37,38,41)

> <Ligand InChI Key>
NBDUYVCAGYKHNT-UHFFFAOYSA-N

> <BindingDB MonomerID>
50210747

> <BindingDB Ligand Name>
CHEMBL3968039

> <Target Name Assigned by Curator or DataSource>
Epidermal growth factor receptor

> <Target Source Organism According to Curator or DataSource>
Homo sapiens

> <Ki (nM)>


> <Kd (nM)>


> <EC50 (nM)>


> <kon (M-1-s-1)>


> <koff (s-1)>


> <pH>


> <Temp C>


> <Curation/DataSource>
ChEMBL

> <Article DOI>
10.1016/j.ejmech.2016.09.039

> <PubChem AID>


> <Patent Number>


> <Authors>
Zhang, HQ; Gong, FH; Ye, JQ; Zhang, C; Yue, XH; Li, CG; Xu, YG; Sun, LP

> <Institution>
China Pharmaceutical University

> <Link to Ligand in BindingDB>
http://www.bindingdb.org/bind/chemsearch/marvin/MolStructure.jsp?monomerid=50210747

> <Link to Ligand-Target Pair in BindingDB>
http://www.bindingdb.org/jsp/dbsearch/PrimarySearch_ki.jsp?energyterm=kJ/mole&tag=r21&monomerid=50210747&enzyme=Epidermal+growth+factor+receptor&column=ki&startPg=0&Increment=50&submit=Search

> <Ligand HET ID in PDB>


> <PDB ID(s) for Ligand-Target Complex>


> <PubChem CID>
134150713

> <PubChem SID>
375982714

> <ChEBI ID of Ligand>


> <ChEMBL ID of Ligand>
CHEMBL3968039

> <DrugBank ID of Ligand>


> <IUPHAR_GRAC ID of Ligand>


> <KEGG ID of Ligand>


> <ZINC ID of Ligand>


> <Number of Protein Chains in Target (>
1

> <BindingDB Target Chain Sequence>
MRPSGTAGAALLALLAALCPASRALEEKKVCQGTSNKLTQLGTFEDHFLSLQRMFNNCEVVLGNLEITYVQRNYDLSFLKTIQEVAGYVLIALNTVERIPLENLQIIRGNMYYENSYALAVLSNYDANKTGLKELPMRNLQEILHGAVRFSNNPALCNVESIQWRDIVSSDFLSNMSMDFQNHLGSCQKCDPSCPNGSCWGAGEENCQKLTKIICAQQCSGRCRGKSPSDCCHNQCAAGCTGPRESDCLVCRKFRDEATCKDTCPPLMLYNPTTYQMDVNPEGKYSFGATCVKKCPRNYVVTDHGSCVRACGADSYEMEEDGVRKCKKCEGPCRKVCNGIGIGEFKDSLSINATNIKHFKNCTSISGDLHILPVAFRGDSFTHTPPLDPQELDILKTVKEITGFLLIQAWPENRTDLHAFENLEIIRGRTKQHGQFSLAVVSLNITSLGLRSLKEISDGDVIISGNKNLCYANTINWKKLFGTSGQKTKIISNRGENSCKATGQVCHALCSPEGCWGPEPRDCVSCRNVSRGRECVDKCNLLEGEPREFVENSECIQCHPECLPQAMNITCTGRGPDNCIQCAHYIDGPHCVKTCPAGVMGENNTLVWKYADAGHVCHLCHPNCTYGCTGPGLEGCPTNGPKIPSIATGMVGALLLLLVVALGIGLFMRRRHIVRKRTLRRLLQERELVEPLTPSGEAPNQALLRILKETEFKKIKVLGSGAFGTVYKGLWIPEGEKVKIPVAIKELREATSPKANKEILDEAYVMASVDNPHVCRLLGICLTSTVQLITQLMPFGCLLDYVREHKDNIGSQYLLNWCVQIAKGMNYLEDRRLVHRDLAARNVLVKTPQHVKITDFGLAKLLGAEEKEYHAEGGKVPIKWMALESILHRIYTHQSDVWSYGVTVWELMTFGSKPYDGIPASEISSILEKGERLPQPPICTIDVYMIMVKCWMIDADSRPKFRELIIEFSKMARDPQRYLVIQGDERMHLPSPTDSNFYRALMDEEDMDDVVDADEYLIPQQGFFSSPSTSRTPLLSSLSATSNNSTVACIDRNGLQSCPIKEDSFLQRYSSDPTGALTEDSIDDTFLPVPEYINQSVPKRPAGSVQNPVYHNQPLNPAPSRDPHYQDPHSTAVGNPEYLNTVQPTCVNSTFDSPAHWAQKGSHQISLDNPDYQQDFFPKEAKPNGIFKGSTAENAEYLRVAPQSSEFIGA

> <PDB ID(s) of Target Chain>
1IVO,1M14,1M17,1MOX,1XKK,1Z9I,2GS2,2GS6,2ITW,2ITX,2ITY,2J5E,2J5F,2J6M,2RF9,2RGP,3B2V,3BEL,3GOP,3POZ,3QWQ,3VJO,3W2O,3W2P,3W2Q,3W2R,3W2S,3W32,3W33,4G5J,4I23,4JQ7,4JQ8,4JR3,4JRV,4KRO,4LI5,4RJ4,4RJ5,4RJ6,4RJ7,4RJ8,4TKS,4UIP,4UV7,4WKQ,4WRG,4ZAU,5C8K,5C8M,5C8N,5CAL,5CAN,5CAO,5CAP,5CAQ,5CAS,5CAU,5CAV,5EDP,5EDQ,5EDR,5EM5,5EM6,5EM7,5EM8,5FED,5GNK,5HCX,5HCY,5HCZ,5HIB,5HIC,5UGB,5WB7,5WB8,5Y25,6S89,6S8A

> <UniProt (SwissProt) Recommended Name of Target Chain>
Epidermal growth factor receptor

> <UniProt (SwissProt) Entry Name of Target Chain>
EGFR_HUMAN

> <UniProt (SwissProt) Primary ID of Target Chain>
P00533

> <UniProt (SwissProt) Secondary ID(s) of Target Chain>
O00688,O00732,P06268,Q14225,Q68GS5,Q92795,Q9BZS2,Q9GZX1,Q9H2C9,Q9H3C9,Q9UMD7,Q9UMD8,Q9UMG5

> <UniProt (SwissProt) Alternative ID(s) of Target Chain>


> <UniProt (TrEMBL) Submitted Name of Target Chain>


> <UniProt (TrEMBL) Entry Name of Target Chain>


> <UniProt (TrEMBL) Primary ID of Target Chain>


> <UniProt (TrEMBL) Secondary ID(s) of Target Chain>


> <UniProt (TrEMBL) Alternative ID(s) of Target Chain>


> <training label>
9

> <i_lp_mmshare_version>
54117

> <s_epik_input>
W0NIMl0xW0NIMl1OKFtDSDNdKVtDSDJdW0NIMl1OMVtDSDJdW0NIMl1bQ0gyXU9jKGMoW2NIXTIpT1tDSDNdKVtjSF1jKGMyMyluW2NIXW5jM1tOSF1jNFtjSF1jKENsKWMoW2NIXVtjSF00KVtOSF1DKD1PKVtOSF1jNVtjSF1jKFtDSDNdKWMoW0NIM10pW2NIXVtjSF01

> <s_epik_cmdline>
J2VwaWtfcHl0aG9uJywgJy1waHQnLCAnMC4xJywgJy1waCcsICc3LjQnLCAnLXRuJywgJzgnLCAnLW1hJywgJzIwMCcsICctaW1hZScsICc8aW5maWxlLm1hZT4nLCAnLW9tYWUnLCAnPG91dGZpbGUubWFlPic=

> <r_lp_tautomer_probability>
0.999978000241998

> <r_epik_Ionization_Penalty>
  0.0669

> <r_epik_Ionization_Penalty_Charging>
  0.0659

> <r_epik_Ionization_Penalty_Neutral>
  0.0010

> <r_epik_State_Penalty>
  0.1437

> <r_epik_Charging_Adjusted_Penalty>
0.209599309145144

> <i_epik_Tot_Q>
1

> <i_epik_Tot_abs_Q>
1

> <i_f3d_flags>
0

> <s_lp_Force_Field>
OPLS_2005

> <r_lp_Energy>
56.494864

> <b_lp_Chiralities_Consistent>
1

> <s_lp_Variant>
/home/bortolaa/Project/GT/mario-master/ligands/set505ligs_train.sdf:252-1

> <s_i_glide_gridfile>
struct_1_site_1

> <i_i_glide_lignum>
280

> <i_i_glide_rotatable_bonds>
12

> <r_i_docking_score>
-7.29821039592541

> <r_i_glide_ligand_efficiency>
-0.169725823161056

> <r_i_glide_ligand_efficiency_sa>
-0.594617118914493

> <r_i_glide_ligand_efficiency_ln>
-1.53285100785189

> <r_i_glide_gscore>
-7.44191039592541

> <r_i_glide_lipo>
-3.36437951586517

> <r_i_glide_hbond>
-0.2

> <r_i_glide_metal>
0

> <r_i_glide_rewards>
-0.296273426251155

> <r_i_glide_evdw>
-48.1916618347168

> <r_i_glide_ecoul>
-10.6002750396729

> <r_i_glide_erotb>
0.510817127358056

> <r_i_glide_esite>
-0.0924502334803755

> <r_i_glide_emodel>
-37.022185132038

> <r_i_glide_energy>
-58.7919368743896

> <r_i_glide_einternal>
9.48589611053467

> <i_i_glide_confnum>
400

> <i_i_glide_posenum>
282

> <r_i_glide_eff_state_penalty>
0.1437

> <IC50 (nM)>
1

> <PMID>
27688180

> <r_glide_shape_similarity>
0.500852644443512

> <s_m_subgroup_title>
505 training

> <s_m_subgroupid>
pocket_pv

> <b_m_subgroup_collapsed>
0

$$$$
BindingDB_50380470_mol_1
                    3D
 Schrodinger Suite 2021-2.
 54 56  0  0  1  0            999 V2000
   20.1382    0.5238   52.1235 C   0  0  0  0  0  0
   19.3324   -0.4110   52.8256 C   0  0  0  0  0  0
   19.9071   -1.2168   53.8474 C   0  0  0  0  0  0
   21.5075    0.6529   52.4820 C   0  0  0  0  0  0
   19.5357    1.2487   51.1054 O   0  0  0  0  0  0
   20.3543    1.7887   50.0609 C   0  0  0  0  0  0
   18.0112   -0.5227   52.4361 O   0  0  0  0  0  0
   17.1533   -1.3140   53.2455 C   0  0  0  0  0  0
   22.0721   -0.1637   53.5016 C   0  0  0  0  0  0
   21.2701   -1.1158   54.1879 C   0  0  0  0  0  0
   21.8033   -1.9067   55.1482 N   0  0  0  0  0  0
   23.1009   -1.7538   55.4192 C   0  0  0  0  0  0
   23.9455   -0.9070   54.8315 N   0  0  0  0  0  0
   23.4423   -0.0997   53.8686 C   0  0  0  0  0  0
   24.2913    0.8522   53.2742 N   0  0  0  0  0  0
   25.6879    0.9490   53.3409 C   0  0  0  0  0  0
   26.5180   -0.2000   53.3327 C   0  0  0  0  0  0
   27.9238   -0.0740   53.3799 C   0  0  0  0  0  0
   28.5029    1.2138   53.4467 C   0  0  0  0  0  0
   27.6814    2.3651   53.4279 C   0  0  0  0  0  0
   26.2778    2.2359   53.3717 C   0  0  0  0  0  0
   29.8476    1.3368   53.5631 F   0  0  0  0  0  0
   15.6976   -1.2573   52.7535 C   0  0  0  0  0  0
   15.0704    0.0849   52.9568 N   0  3  0  0  0  0
   15.5536    1.1357   51.9921 C   0  0  0  0  0  0
   15.4261    0.7559   50.4958 C   0  0  0  0  0  0
   13.5803   -0.0286   53.0790 C   0  0  0  0  0  0
   12.8968    1.2444   53.6381 C   0  0  0  0  0  0
   28.9139   -1.4993   53.3724 Cl  0  0  0  0  0  0
   19.3310   -1.9414   54.4021 H   0  0  0  0  0  0
   22.1210    1.3699   51.9586 H   0  0  0  0  0  0
   19.7180    2.1520   49.2502 H   0  0  0  0  0  0
   20.9453    2.6383   50.4176 H   0  0  0  0  0  0
   21.0309    1.0343   49.6514 H   0  0  0  0  0  0
   17.1952   -0.9826   54.2841 H   0  0  0  0  0  0
   17.4851   -2.3548   53.2074 H   0  0  0  0  0  0
   23.5165   -2.4023   56.1747 H   0  0  0  0  0  0
   23.8275    1.6342   52.8340 H   0  0  0  0  0  0
   26.0853   -1.1878   53.2785 H   0  0  0  0  0  0
   28.1304    3.3447   53.4833 H   0  0  0  0  0  0
   25.6701    3.1291   53.3661 H   0  0  0  0  0  0
   15.1599   -1.9993   53.3454 H   0  0  0  0  0  0
   15.6063   -1.6066   51.7294 H   0  0  0  0  0  0
   16.5976    1.3779   52.1789 H   0  0  0  0  0  0
   15.0178    2.0680   52.1728 H   0  0  0  0  0  0
   15.7304    1.5953   49.8748 H   0  0  0  0  0  0
   14.4003    0.5010   50.2222 H   0  0  0  0  0  0
   16.0757   -0.0780   50.2220 H   0  0  0  0  0  0
   13.1445   -0.2935   52.1159 H   0  0  0  0  0  0
   13.3403   -0.8443   53.7608 H   0  0  0  0  0  0
   11.8407    1.0661   53.8429 H   0  0  0  0  0  0
   13.3604    1.5648   54.5727 H   0  0  0  0  0  0
   12.9312    2.0724   52.9311 H   0  0  0  0  0  0
   15.3607    0.4002   53.8787 H   0  0  0  0  0  0
  1  2  2  0  0  0
  1  4  1  0  0  0
  1  5  1  0  0  0
  2  3  1  0  0  0
  2  7  1  0  0  0
  3 10  2  0  0  0
  3 30  1  0  0  0
  4  9  2  0  0  0
  4 31  1  0  0  0
  5  6  1  0  0  0
  6 32  1  0  0  0
  6 33  1  0  0  0
  6 34  1  0  0  0
  7  8  1  0  0  0
  8 23  1  0  0  0
  8 35  1  0  0  0
  8 36  1  0  0  0
  9 10  1  0  0  0
  9 14  1  0  0  0
 10 11  1  0  0  0
 11 12  2  0  0  0
 12 13  1  0  0  0
 12 37  1  0  0  0
 13 14  2  0  0  0
 14 15  1  0  0  0
 15 16  1  0  0  0
 15 38  1  0  0  0
 16 17  2  0  0  0
 16 21  1  0  0  0
 17 18  1  0  0  0
 17 39  1  0  0  0
 18 19  2  0  0  0
 18 29  1  0  0  0
 19 20  1  0  0  0
 19 22  1  0  0  0
 20 21  2  0  0  0
 20 40  1  0  0  0
 21 41  1  0  0  0
 23 24  1  0  0  0
 23 42  1  0  0  0
 23 43  1  0  0  0
 24 25  1  0  0  0
 24 27  1  0  0  0
 24 54  1  0  0  0
 25 26  1  0  0  0
 25 44  1  0  0  0
 25 45  1  0  0  0
 26 46  1  0  0  0
 26 47  1  0  0  0
 26 48  1  0  0  0
 27 28  1  0  0  0
 27 49  1  0  0  0
 27 50  1  0  0  0
 28 51  1  0  0  0
 28 52  1  0  0  0
 28 53  1  0  0  0
M  CHG  1  24   1
M  END
> <s_m_entry_id>
346

> <s_m_entry_name>
pocket_pv.157

> <s_m_Source_Path>
/home/bortolaa/Project/GT/mario-master/docking/set505protein_struct_1_site_1_set505ligs_train

> <s_m_Source_File>
pocket_pv.maegz

> <i_m_Source_File_Index>
157

> <From>
www.bindingDB.org

> <BindingDB Reactant_set_id>
50927756

> <Ligand InChI>
InChI=1S/C21H24ClFN4O2/c1-4-27(5-2)8-9-29-20-12-18-15(11-19(20)28-3)21(25-13-24-18)26-14-6-7-17(23)16(22)10-14/h6-7,10-13H,4-5,8-9H2,1-3H3,(H,24,25,26)

> <Ligand InChI Key>
JRUBCGWWMQRPLB-UHFFFAOYSA-N

> <BindingDB MonomerID>
50380470

> <BindingDB Ligand Name>
CHEMBL2018765

> <Target Name Assigned by Curator or DataSource>
Epidermal growth factor receptor

> <Target Source Organism According to Curator or DataSource>
Homo sapiens

> <Ki (nM)>


> <IC50 (nM)>
9900

> <Kd (nM)>


> <EC50 (nM)>


> <kon (M-1-s-1)>


> <koff (s-1)>


> <pH>


> <Temp C>


> <Curation/DataSource>
ChEMBL

> <Article DOI>
10.1021/jm2013453

> <PubChem AID>


> <Patent Number>


> <Authors>
Garofalo, A; Farce, A; Ravez, S; Lemoine, A; Six, P; Chavatte, P; Goossens, L; Depreux, P

> <Institution>
Univ. Lille Nord de France

> <Link to Ligand in BindingDB>
http://www.bindingdb.org/bind/chemsearch/marvin/MolStructure.jsp?monomerid=50380470

> <Link to Ligand-Target Pair in BindingDB>
http://www.bindingdb.org/jsp/dbsearch/PrimarySearch_ki.jsp?energyterm=kJ/mole&tag=r21&monomerid=50380470&enzyme=Epidermal+growth+factor+receptor&column=ki&startPg=0&Increment=50&submit=Search

> <Ligand HET ID in PDB>


> <PDB ID(s) for Ligand-Target Complex>


> <PubChem CID>
56954235

> <PubChem SID>
160859553

> <ChEBI ID of Ligand>


> <ChEMBL ID of Ligand>
CHEMBL2018765

> <DrugBank ID of Ligand>


> <IUPHAR_GRAC ID of Ligand>


> <KEGG ID of Ligand>


> <ZINC ID of Ligand>
ZINC84617255

> <Number of Protein Chains in Target (>
1

> <BindingDB Target Chain Sequence>
MRPSGTAGAALLALLAALCPASRALEEKKVCQGTSNKLTQLGTFEDHFLSLQRMFNNCEVVLGNLEITYVQRNYDLSFLKTIQEVAGYVLIALNTVERIPLENLQIIRGNMYYENSYALAVLSNYDANKTGLKELPMRNLQEILHGAVRFSNNPALCNVESIQWRDIVSSDFLSNMSMDFQNHLGSCQKCDPSCPNGSCWGAGEENCQKLTKIICAQQCSGRCRGKSPSDCCHNQCAAGCTGPRESDCLVCRKFRDEATCKDTCPPLMLYNPTTYQMDVNPEGKYSFGATCVKKCPRNYVVTDHGSCVRACGADSYEMEEDGVRKCKKCEGPCRKVCNGIGIGEFKDSLSINATNIKHFKNCTSISGDLHILPVAFRGDSFTHTPPLDPQELDILKTVKEITGFLLIQAWPENRTDLHAFENLEIIRGRTKQHGQFSLAVVSLNITSLGLRSLKEISDGDVIISGNKNLCYANTINWKKLFGTSGQKTKIISNRGENSCKATGQVCHALCSPEGCWGPEPRDCVSCRNVSRGRECVDKCNLLEGEPREFVENSECIQCHPECLPQAMNITCTGRGPDNCIQCAHYIDGPHCVKTCPAGVMGENNTLVWKYADAGHVCHLCHPNCTYGCTGPGLEGCPTNGPKIPSIATGMVGALLLLLVVALGIGLFMRRRHIVRKRTLRRLLQERELVEPLTPSGEAPNQALLRILKETEFKKIKVLGSGAFGTVYKGLWIPEGEKVKIPVAIKELREATSPKANKEILDEAYVMASVDNPHVCRLLGICLTSTVQLITQLMPFGCLLDYVREHKDNIGSQYLLNWCVQIAKGMNYLEDRRLVHRDLAARNVLVKTPQHVKITDFGLAKLLGAEEKEYHAEGGKVPIKWMALESILHRIYTHQSDVWSYGVTVWELMTFGSKPYDGIPASEISSILEKGERLPQPPICTIDVYMIMVKCWMIDADSRPKFRELIIEFSKMARDPQRYLVIQGDERMHLPSPTDSNFYRALMDEEDMDDVVDADEYLIPQQGFFSSPSTSRTPLLSSLSATSNNSTVACIDRNGLQSCPIKEDSFLQRYSSDPTGALTEDSIDDTFLPVPEYINQSVPKRPAGSVQNPVYHNQPLNPAPSRDPHYQDPHSTAVGNPEYLNTVQPTCVNSTFDSPAHWAQKGSHQISLDNPDYQQDFFPKEAKPNGIFKGSTAENAEYLRVAPQSSEFIGA

> <PDB ID(s) of Target Chain>
1IVO,1M14,1M17,1MOX,1XKK,1Z9I,2GS2,2GS6,2ITW,2ITX,2ITY,2J5E,2J5F,2J6M,2RF9,2RGP,3B2V,3BEL,3GOP,3POZ,3QWQ,3VJO,3W2O,3W2P,3W2Q,3W2R,3W2S,3W32,3W33,4G5J,4I23,4JQ7,4JQ8,4JR3,4JRV,4KRO,4LI5,4RJ4,4RJ5,4RJ6,4RJ7,4RJ8,4TKS,4UIP,4UV7,4WKQ,4WRG,4ZAU,5C8K,5C8M,5C8N,5CAL,5CAN,5CAO,5CAP,5CAQ,5CAS,5CAU,5CAV,5EDP,5EDQ,5EDR,5EM5,5EM6,5EM7,5EM8,5FED,5GNK,5HCX,5HCY,5HCZ,5HIB,5HIC,5UGB,5WB7,5WB8,5Y25,6S89,6S8A

> <UniProt (SwissProt) Recommended Name of Target Chain>
Epidermal growth factor receptor

> <UniProt (SwissProt) Entry Name of Target Chain>
EGFR_HUMAN

> <UniProt (SwissProt) Primary ID of Target Chain>
P00533

> <UniProt (SwissProt) Secondary ID(s) of Target Chain>
O00688,O00732,P06268,Q14225,Q68GS5,Q92795,Q9BZS2,Q9GZX1,Q9H2C9,Q9H3C9,Q9UMD7,Q9UMD8,Q9UMG5

> <UniProt (SwissProt) Alternative ID(s) of Target Chain>


> <UniProt (TrEMBL) Submitted Name of Target Chain>


> <UniProt (TrEMBL) Entry Name of Target Chain>


> <UniProt (TrEMBL) Primary ID of Target Chain>


> <UniProt (TrEMBL) Secondary ID(s) of Target Chain>


> <UniProt (TrEMBL) Alternative ID(s) of Target Chain>


> <training label>
5.00436

> <i_lp_mmshare_version>
54117

> <s_epik_input>
W0NIM11bQ0gyXU4oW0NIMl1bQ0gzXSlbQ0gyXVtDSDJdT2MoYyhbY0hdMSlPW0NIM10pW2NIXWMoYzEyKW5bY0hdbmMyW05IXWMzW2NIXWMoQ2wpYyhGKVtjSF1bY0hdMw==

> <s_epik_cmdline>
J2VwaWtfcHl0aG9uJywgJy1waHQnLCAnMC4xJywgJy1waCcsICc3LjQnLCAnLXRuJywgJzgnLCAnLW1hJywgJzIwMCcsICctaW1hZScsICc8aW5maWxlLm1hZT4nLCAnLW9tYWUnLCAnPG91dGZpbGUubWFlPic=

> <r_lp_tautomer_probability>
0.999978000241998

> <r_epik_Ionization_Penalty>
  0.0610

> <r_epik_Ionization_Penalty_Charging>
  0.0604

> <r_epik_Ionization_Penalty_Neutral>
  0.0006

> <r_epik_State_Penalty>
  0.0524

> <r_epik_Charging_Adjusted_Penalty>
0.112841773912698

> <i_epik_Tot_Q>
1

> <i_epik_Tot_abs_Q>
1

> <i_f3d_flags>
0

> <s_lp_Force_Field>
OPLS_2005

> <r_lp_Energy>
28.259004

> <b_lp_Chiralities_Consistent>
1

> <s_lp_Variant>
BindingDB_50380470_mol_1-1

> <s_i_glide_gridfile>
struct_1_site_1

> <i_i_glide_lignum>
22

> <i_i_glide_rotatable_bonds>
9

> <r_i_docking_score>
-7.27202569367788

> <r_i_glide_ligand_efficiency>
-0.250759506678547

> <r_i_glide_ligand_efficiency_sa>
-0.770412650704448

> <r_i_glide_ligand_efficiency_ln>
-1.66510948119134

> <r_i_glide_gscore>
-7.32442569367788

> <r_i_glide_lipo>
-3.07295030873244

> <r_i_glide_hbond>
-0.32

> <r_i_glide_metal>
0

> <r_i_glide_rewards>
-1.68909967266789

> <r_i_glide_evdw>
-43.036792755127

> <r_i_glide_ecoul>
-4.62900400161743

> <r_i_glide_erotb>
0.673366992436592

> <r_i_glide_esite>
-0.0695524667151722

> <r_i_glide_emodel>
-60.2079809593152

> <r_i_glide_energy>
-47.6657967567444

> <r_i_glide_einternal>
4.18703842163086

> <i_i_glide_confnum>
125

> <i_i_glide_posenum>
30

> <r_i_glide_eff_state_penalty>
0.0524

> <PMID>
22229669

> <r_glide_shape_similarity>
0.897397518157959

> <s_m_subgroup_title>
505 training

> <s_m_subgroupid>
pocket_pv

> <b_m_subgroup_collapsed>
0

$$$$
BindingDB_50102086_mol_1
                    3D
 Schrodinger Suite 2021-2.
 54 56  0  0  1  0            999 V2000
   22.0655   -0.1657   53.4996 C   0  0  0  0  0  0
   23.4380   -0.0999   53.8664 C   0  0  0  0  0  0
   21.2692   -1.1233   54.1874 C   0  0  0  0  0  0
   21.4805    0.6589   52.5018 C   0  0  0  0  0  0
   23.9467   -0.9072   54.8274 N   0  0  0  0  0  0
   19.9006   -1.2350   53.8567 C   0  0  0  0  0  0
   24.2861    0.8521   53.2726 N   0  0  0  0  0  0
   20.0967    0.5274   52.1791 C   0  0  0  0  0  0
   19.3025   -0.4196   52.8634 C   0  0  0  0  0  0
   27.9180   -0.0798   53.3847 C   0  0  0  0  0  0
   21.8079   -1.9093   55.1479 N   0  0  0  0  0  0
   26.5133   -0.2056   53.3302 C   0  0  0  0  0  0
   23.1047   -1.7520   55.4176 C   0  0  0  0  0  0
   25.6849    0.9466   53.3397 C   0  0  0  0  0  0
   28.4982    1.2072   53.4494 C   0  0  0  0  0  0
   27.6809    2.3579   53.4257 C   0  0  0  0  0  0
   28.9260   -1.4938   53.3745 Cl  0  0  0  0  0  0
   26.2767    2.2302   53.3681 C   0  0  0  0  0  0
   19.4039    1.2791   51.2455 O   0  0  0  0  0  0
   29.8412    1.3245   53.5622 F   0  0  0  0  0  0
   21.5198    2.9757   48.6479 N   0  3  0  0  0  0
   17.9579   -0.4703   52.5188 O   0  0  0  0  0  0
   20.0155    2.4014   50.6371 C   0  0  0  0  0  0
   20.8558    1.9000   49.4527 C   0  0  0  0  0  0
   22.3939    3.9299   49.4265 C   0  0  0  0  0  0
   22.2828    2.3422   47.5202 C   0  0  0  0  0  0
   17.0472   -1.1765   53.3596 C   0  0  0  0  0  0
   21.6717    5.2300   49.8692 C   0  0  0  0  0  0
   22.1690    3.1464   46.2062 C   0  0  0  0  0  0
   22.0909    1.3877   51.9948 H   0  0  0  0  0  0
   19.3144   -1.9584   54.3980 H   0  0  0  0  0  0
   23.8166    1.6297   52.8329 H   0  0  0  0  0  0
   26.0761   -1.1927   53.2785 H   0  0  0  0  0  0
   23.5296   -2.4015   56.1680 H   0  0  0  0  0  0
   28.1360    3.3375   53.4650 H   0  0  0  0  0  0
   25.6680    3.1236   53.3500 H   0  0  0  0  0  0
   20.5952    2.9458   51.3813 H   0  0  0  0  0  0
   19.2305    3.0733   50.2898 H   0  0  0  0  0  0
   20.1878    1.3356   48.7966 H   0  0  0  0  0  0
   21.6138    1.1947   49.7986 H   0  0  0  0  0  0
   23.2262    4.2433   48.7937 H   0  0  0  0  0  0
   22.8485    3.4284   50.2847 H   0  0  0  0  0  0
   23.3315    2.2032   47.7823 H   0  0  0  0  0  0
   21.9040    1.3313   47.3738 H   0  0  0  0  0  0
   16.0197   -0.9870   53.0424 H   0  0  0  0  0  0
   17.2226   -2.2524   53.3032 H   0  0  0  0  0  0
   17.1338   -0.8619   54.4020 H   0  0  0  0  0  0
   22.4073    5.9613   50.2131 H   0  0  0  0  0  0
   20.9763    5.0694   50.6990 H   0  0  0  0  0  0
   21.1093    5.6897   49.0465 H   0  0  0  0  0  0
   22.6859    2.6417   45.3877 H   0  0  0  0  0  0
   21.1289    3.2766   45.9114 H   0  0  0  0  0  0
   22.6125    4.1360   46.3142 H   0  0  0  0  0  0
   20.7586    3.5208   48.2408 H   0  0  0  0  0  0
  1  2  2  0  0  0
  1  3  1  0  0  0
  1  4  1  0  0  0
  2  5  1  0  0  0
  2  7  1  0  0  0
  3  6  1  0  0  0
  3 11  2  0  0  0
  4  8  2  0  0  0
  4 30  1  0  0  0
  5 13  2  0  0  0
  6  9  2  0  0  0
  6 31  1  0  0  0
  7 14  1  0  0  0
  7 32  1  0  0  0
  8  9  1  0  0  0
  8 19  1  0  0  0
  9 22  1  0  0  0
 10 12  2  0  0  0
 10 15  1  0  0  0
 10 17  1  0  0  0
 11 13  1  0  0  0
 12 14  1  0  0  0
 12 33  1  0  0  0
 13 34  1  0  0  0
 14 18  2  0  0  0
 15 16  2  0  0  0
 15 20  1  0  0  0
 16 18  1  0  0  0
 16 35  1  0  0  0
 18 36  1  0  0  0
 19 23  1  0  0  0
 21 24  1  0  0  0
 21 25  1  0  0  0
 21 26  1  0  0  0
 21 54  1  0  0  0
 22 27  1  0  0  0
 23 24  1  0  0  0
 23 37  1  0  0  0
 23 38  1  0  0  0
 24 39  1  0  0  0
 24 40  1  0  0  0
 25 28  1  0  0  0
 25 41  1  0  0  0
 25 42  1  0  0  0
 26 29  1  0  0  0
 26 43  1  0  0  0
 26 44  1  0  0  0
 27 45  1  0  0  0
 27 46  1  0  0  0
 27 47  1  0  0  0
 28 48  1  0  0  0
 28 49  1  0  0  0
 28 50  1  0  0  0
 29 51  1  0  0  0
 29 52  1  0  0  0
 29 53  1  0  0  0
M  CHG  1  21   1
M  END
> <s_m_entry_id>
347

> <s_m_entry_name>
pocket_pv.158

> <s_m_Source_Path>
/home/bortolaa/Project/GT/mario-master/docking/set505protein_struct_1_site_1_set505ligs_train

> <s_m_Source_File>
pocket_pv.maegz

> <i_m_Source_File_Index>
158

> <From>
www.bindingDB.org

> <BindingDB Reactant_set_id>
50733031

> <Ligand InChI>
InChI=1S/C21H24ClFN4O2/c1-4-27(5-2)8-9-29-20-11-15-18(12-19(20)28-3)24-13-25-21(15)26-14-6-7-17(23)16(22)10-14/h6-7,10-13H,4-5,8-9H2,1-3H3,(H,24,25,26)

> <Ligand InChI Key>
OOSIXUJCRGYBQJ-UHFFFAOYSA-N

> <BindingDB MonomerID>
50102086

> <BindingDB Ligand Name>
(3-Chloro-4-fluoro-phenyl)-[6-(2-diethylamino-ethoxy)-7-methoxy-quinazolin-4-yl]-amine::CHEMBL293064

> <Target Name Assigned by Curator or DataSource>
Epidermal growth factor receptor

> <Target Source Organism According to Curator or DataSource>
Homo sapiens

> <Ki (nM)>


> <Kd (nM)>


> <EC50 (nM)>


> <kon (M-1-s-1)>


> <koff (s-1)>


> <pH>


> <Temp C>


> <Curation/DataSource>
ChEMBL

> <Article DOI>
10.1016/s0960-894x(01)00344-4

> <PubChem AID>


> <Patent Number>


> <Authors>
Barker, AJ; Gibson, KH; Grundy, W; Godfrey, AA; Barlow, JJ; Healy, MP; Woodburn, JR; Ashton, SE; Curry, BJ; Scarlett, L; Henthorn, L; Richards, L

> <Institution>
AstraZeneca

> <Link to Ligand in BindingDB>
http://www.bindingdb.org/bind/chemsearch/marvin/MolStructure.jsp?monomerid=50102086

> <Link to Ligand-Target Pair in BindingDB>
http://www.bindingdb.org/jsp/dbsearch/PrimarySearch_ki.jsp?energyterm=kJ/mole&tag=r21&monomerid=50102086&enzyme=Epidermal+growth+factor+receptor&column=ki&startPg=0&Increment=50&submit=Search

> <Ligand HET ID in PDB>


> <PDB ID(s) for Ligand-Target Complex>


> <PubChem CID>
19077513

> <PubChem SID>
103998643

> <ChEBI ID of Ligand>


> <ChEMBL ID of Ligand>
CHEMBL293064

> <DrugBank ID of Ligand>


> <IUPHAR_GRAC ID of Ligand>


> <KEGG ID of Ligand>


> <ZINC ID of Ligand>
ZINC29560561

> <Number of Protein Chains in Target (>
1

> <BindingDB Target Chain Sequence>
MRPSGTAGAALLALLAALCPASRALEEKKVCQGTSNKLTQLGTFEDHFLSLQRMFNNCEVVLGNLEITYVQRNYDLSFLKTIQEVAGYVLIALNTVERIPLENLQIIRGNMYYENSYALAVLSNYDANKTGLKELPMRNLQEILHGAVRFSNNPALCNVESIQWRDIVSSDFLSNMSMDFQNHLGSCQKCDPSCPNGSCWGAGEENCQKLTKIICAQQCSGRCRGKSPSDCCHNQCAAGCTGPRESDCLVCRKFRDEATCKDTCPPLMLYNPTTYQMDVNPEGKYSFGATCVKKCPRNYVVTDHGSCVRACGADSYEMEEDGVRKCKKCEGPCRKVCNGIGIGEFKDSLSINATNIKHFKNCTSISGDLHILPVAFRGDSFTHTPPLDPQELDILKTVKEITGFLLIQAWPENRTDLHAFENLEIIRGRTKQHGQFSLAVVSLNITSLGLRSLKEISDGDVIISGNKNLCYANTINWKKLFGTSGQKTKIISNRGENSCKATGQVCHALCSPEGCWGPEPRDCVSCRNVSRGRECVDKCNLLEGEPREFVENSECIQCHPECLPQAMNITCTGRGPDNCIQCAHYIDGPHCVKTCPAGVMGENNTLVWKYADAGHVCHLCHPNCTYGCTGPGLEGCPTNGPKIPSIATGMVGALLLLLVVALGIGLFMRRRHIVRKRTLRRLLQERELVEPLTPSGEAPNQALLRILKETEFKKIKVLGSGAFGTVYKGLWIPEGEKVKIPVAIKELREATSPKANKEILDEAYVMASVDNPHVCRLLGICLTSTVQLITQLMPFGCLLDYVREHKDNIGSQYLLNWCVQIAKGMNYLEDRRLVHRDLAARNVLVKTPQHVKITDFGLAKLLGAEEKEYHAEGGKVPIKWMALESILHRIYTHQSDVWSYGVTVWELMTFGSKPYDGIPASEISSILEKGERLPQPPICTIDVYMIMVKCWMIDADSRPKFRELIIEFSKMARDPQRYLVIQGDERMHLPSPTDSNFYRALMDEEDMDDVVDADEYLIPQQGFFSSPSTSRTPLLSSLSATSNNSTVACIDRNGLQSCPIKEDSFLQRYSSDPTGALTEDSIDDTFLPVPEYINQSVPKRPAGSVQNPVYHNQPLNPAPSRDPHYQDPHSTAVGNPEYLNTVQPTCVNSTFDSPAHWAQKGSHQISLDNPDYQQDFFPKEAKPNGIFKGSTAENAEYLRVAPQSSEFIGA

> <PDB ID(s) of Target Chain>
1IVO,1M14,1M17,1MOX,1XKK,1Z9I,2GS2,2GS6,2ITW,2ITX,2ITY,2J5E,2J5F,2J6M,2RF9,2RGP,3B2V,3BEL,3GOP,3POZ,3QWQ,3VJO,3W2O,3W2P,3W2Q,3W2R,3W2S,3W32,3W33,4G5J,4I23,4JQ7,4JQ8,4JR3,4JRV,4KRO,4LI5,4RJ4,4RJ5,4RJ6,4RJ7,4RJ8,4TKS,4UIP,4UV7,4WKQ,4WRG,4ZAU,5C8K,5C8M,5C8N,5CAL,5CAN,5CAO,5CAP,5CAQ,5CAS,5CAU,5CAV,5EDP,5EDQ,5EDR,5EM5,5EM6,5EM7,5EM8,5FED,5GNK,5HCX,5HCY,5HCZ,5HIB,5HIC,5UGB,5WB7,5WB8,5Y25,6S89,6S8A

> <UniProt (SwissProt) Recommended Name of Target Chain>
Epidermal growth factor receptor

> <UniProt (SwissProt) Entry Name of Target Chain>
EGFR_HUMAN

> <UniProt (SwissProt) Primary ID of Target Chain>
P00533

> <UniProt (SwissProt) Secondary ID(s) of Target Chain>
O00688,O00732,P06268,Q14225,Q68GS5,Q92795,Q9BZS2,Q9GZX1,Q9H2C9,Q9H3C9,Q9UMD7,Q9UMD8,Q9UMG5

> <UniProt (SwissProt) Alternative ID(s) of Target Chain>


> <UniProt (TrEMBL) Submitted Name of Target Chain>


> <UniProt (TrEMBL) Entry Name of Target Chain>


> <UniProt (TrEMBL) Primary ID of Target Chain>


> <UniProt (TrEMBL) Secondary ID(s) of Target Chain>


> <UniProt (TrEMBL) Alternative ID(s) of Target Chain>


> <training label>
7.03152

> <i_lp_mmshare_version>
54117

> <s_epik_input>
W0NIM11bQ0gyXU4oW0NIMl1bQ0gzXSlbQ0gyXVtDSDJdT2MoW2NIXTEpYyhPW0NIM10pW2NIXWMoYzEyKW5bY0hdbmMyW05IXWMoW2NIXWMzQ2wpW2NIXVtjSF1jM0Y=

> <s_epik_cmdline>
J2VwaWtfcHl0aG9uJywgJy1waHQnLCAnMC4xJywgJy1waCcsICc3LjQnLCAnLXRuJywgJzgnLCAnLW1hJywgJzIwMCcsICctaW1hZScsICc8aW5maWxlLm1hZT4nLCAnLW9tYWUnLCAnPG91dGZpbGUubWFlPic=

> <r_lp_tautomer_probability>
0.999978000241998

> <r_epik_Ionization_Penalty>
  0.0608

> <r_epik_Ionization_Penalty_Charging>
  0.0604

> <r_epik_Ionization_Penalty_Neutral>
  0.0004

> <r_epik_State_Penalty>
  0.0524

> <r_epik_Charging_Adjusted_Penalty>
0.112841773912698

> <i_epik_Tot_Q>
1

> <i_epik_Tot_abs_Q>
1

> <i_f3d_flags>
0

> <s_lp_Force_Field>
OPLS_2005

> <r_lp_Energy>
30.081705

> <b_lp_Chiralities_Consistent>
1

> <s_lp_Variant>
BindingDB_50102086_mol_1-1

> <s_i_glide_gridfile>
struct_1_site_1

> <i_i_glide_lignum>
166

> <i_i_glide_rotatable_bonds>
9

> <r_i_docking_score>
-7.26080901123227

> <r_i_glide_ligand_efficiency>
-0.250372724525251

> <r_i_glide_ligand_efficiency_sa>
-0.769224333388333

> <r_i_glide_ligand_efficiency_ln>
-1.66254114534182

> <r_i_glide_gscore>
-7.31320901123227

> <r_i_glide_lipo>
-3.26216113665353

> <r_i_glide_hbond>
-0.32

> <r_i_glide_metal>
0

> <r_i_glide_rewards>
-1.69165304065925

> <r_i_glide_evdw>
-43.415225982666

> <r_i_glide_ecoul>
-3.15796113014221

> <r_i_glide_erotb>
0.673366992436592

> <r_i_glide_esite>
-0.0683063577014474

> <r_i_glide_emodel>
-55.4484266441333

> <r_i_glide_energy>
-46.5731871128082

> <r_i_glide_einternal>
2.87080550193787

> <i_i_glide_confnum>
28

> <i_i_glide_posenum>
83

> <r_i_glide_eff_state_penalty>
0.0524

> <IC50 (nM)>
93

> <PMID>
11459659

> <r_glide_shape_similarity>
0.825589239597321

> <s_m_subgroup_title>
505 training

> <s_m_subgroupid>
pocket_pv

> <b_m_subgroup_collapsed>
0

$$$$
BindingDB_50144606_mol_1
                    3D
 Schrodinger Suite 2021-2.
 44 47  0  0  1  0            999 V2000
   24.1279    0.7160   52.9218 N   0  0  0  0  0  0
   25.5687    0.9440   52.6513 C   0  0  1  0  0  0
   23.5176   -0.1328   53.8237 C   0  0  0  0  0  0
   22.1504   -0.1236   53.4626 C   0  0  0  0  0  0
   21.8923    0.7601   52.4341 N   0  0  0  0  0  0
   26.0537    2.2296   53.2766 C   0  0  1  0  0  0
   23.1113    1.2309   52.1966 C   0  0  0  0  0  0
   26.3394   -0.0710   53.1688 O   0  0  0  0  0  0
   27.5232    1.9333   53.5318 C   0  0  1  0  0  0
   27.6513    0.4426   53.1962 C   0  0  1  0  0  0
   21.3405   -1.0297   54.1467 C   0  0  0  0  0  0
   24.0710   -0.8969   54.8048 N   0  0  0  0  0  0
   21.8609   -1.8059   55.1152 N   0  0  0  0  0  0
   19.6612   -1.2687   53.7851 S   0  0  0  0  0  0
   23.1596   -1.6660   55.3980 C   0  0  0  0  0  0
   25.8693    3.2858   52.3706 O   0  0  0  0  0  0
   28.3799    2.6920   52.7204 O   0  0  0  0  0  0
   19.1378   -0.1776   52.4553 C   0  0  0  0  0  0
   14.8313    0.1738   52.4500 C   0  0  0  0  0  0
   17.6308   -0.1422   52.3508 C   0  0  0  0  0  0
   28.4300   -0.3845   54.1631 C   0  0  0  0  0  0
   12.7776    0.4476   52.6858 I   0  0  0  0  0  0
   15.4221   -0.9909   52.9498 C   0  0  0  0  0  0
   15.6270    1.1393   51.8231 C   0  0  0  0  0  0
   16.8085   -1.1533   52.8905 C   0  0  0  0  0  0
   17.0223    0.9861   51.7738 C   0  0  0  0  0  0
   27.8925   -0.0702   55.4311 O   0  0  0  0  0  0
   25.6573    0.9485   51.5640 H   0  0  0  0  0  0
   25.5151    2.4295   54.2005 H   0  0  0  0  0  0
   23.2971    1.9312   51.3907 H   0  0  0  0  0  0
   27.7595    2.1855   54.5714 H   0  0  0  0  0  0
   28.0489    0.3023   52.1888 H   0  0  0  0  0  0
   23.5528   -2.3151   56.1666 H   0  0  0  0  0  0
   26.3018    4.0749   52.7262 H   0  0  0  0  0  0
   28.1716    3.6125   52.8032 H   0  0  0  0  0  0
   19.4487    0.8429   52.6948 H   0  0  0  0  0  0
   19.5835   -0.4621   51.4968 H   0  0  0  0  0  0
   29.4970   -0.1402   54.1229 H   0  0  0  0  0  0
   28.3204   -1.4475   53.9530 H   0  0  0  0  0  0
   14.8090   -1.7549   53.3729 H   0  0  0  0  0  0
   15.1657    2.0283   51.4334 H   0  0  0  0  0  0
   17.2165   -2.0462   53.3124 H   0  0  0  0  0  0
   17.6209    1.7774   51.3443 H   0  0  0  0  0  0
   28.2403    0.7762   55.6742 H   0  0  0  0  0  0
  1  2  1  0  0  0
  1  3  1  0  0  0
  1  7  1  0  0  0
  2  6  1  0  0  0
  2  8  1  0  0  0
  2 28  1  0  0  0
  3  4  2  0  0  0
  3 12  1  0  0  0
  4 11  1  0  0  0
  4  5  1  0  0  0
  5  7  2  0  0  0
  6  9  1  0  0  0
  6 16  1  0  0  0
  6 29  1  0  0  0
  7 30  1  0  0  0
  8 10  1  0  0  0
  9 17  1  0  0  0
  9 10  1  0  0  0
  9 31  1  0  0  0
 10 21  1  0  0  0
 10 32  1  0  0  0
 11 14  1  0  0  0
 11 13  2  0  0  0
 12 15  2  0  0  0
 13 15  1  0  0  0
 14 18  1  0  0  0
 15 33  1  0  0  0
 16 34  1  0  0  0
 17 35  1  0  0  0
 18 20  1  0  0  0
 18 36  1  0  0  0
 18 37  1  0  0  0
 19 24  2  0  0  0
 19 22  1  0  0  0
 19 23  1  0  0  0
 20 25  1  0  0  0
 20 26  2  0  0  0
 21 27  1  0  0  0
 21 38  1  0  0  0
 21 39  1  0  0  0
 23 25  2  0  0  0
 23 40  1  0  0  0
 24 26  1  0  0  0
 24 41  1  0  0  0
 25 42  1  0  0  0
 26 43  1  0  0  0
 27 44  1  0  0  0
M  END
> <s_m_entry_id>
348

> <s_m_entry_name>
pocket_pv.159

> <s_m_Source_Path>
/home/bortolaa/Project/GT/mario-master/docking/set505protein_struct_1_site_1_set505ligs_train

> <s_m_Source_File>
pocket_pv.maegz

> <i_m_Source_File_Index>
159

> <From>
www.bindingDB.org

> <BindingDB Reactant_set_id>
50463846

> <Ligand InChI>
InChI=1S/C29H23ClN4O3/c1-36-26-15-23-25(16-27(26)37-17-19-7-3-2-4-8-19)31-18-32-28(23)33-20-11-13-21(14-12-20)34-29(35)22-9-5-6-10-24(22)30/h2-16,18H,17H2,1H3,(H,34,35)(H,31,32,33)

> <Ligand InChI Key>
JASSTMZJDQXQFP-UHFFFAOYSA-N

> <BindingDB MonomerID>
50144606

> <BindingDB Ligand Name>
CHEMBL3759203

> <Target Name Assigned by Curator or DataSource>
Epidermal growth factor receptor

> <Target Source Organism According to Curator or DataSource>
Homo sapiens

> <Ki (nM)>


> <IC50 (nM)>
730

> <Kd (nM)>


> <EC50 (nM)>


> <kon (M-1-s-1)>


> <koff (s-1)>


> <pH>


> <Temp C>


> <Curation/DataSource>
ChEMBL

> <Article DOI>
10.1016/j.ejmech.2015.12.032

> <PubChem AID>


> <Patent Number>


> <Authors>
Zhang, HQ; Gong, FH; Li, CG; Zhang, C; Wang, YJ; Xu, YG; Sun, LP

> <Institution>
China Pharmaceutical University

> <Link to Ligand in BindingDB>
http://www.bindingdb.org/bind/chemsearch/marvin/MolStructure.jsp?monomerid=50144606

> <Link to Ligand-Target Pair in BindingDB>
http://www.bindingdb.org/jsp/dbsearch/PrimarySearch_ki.jsp?energyterm=kJ/mole&tag=r21&monomerid=50144606&enzyme=Epidermal+growth+factor+receptor&column=ki&startPg=0&Increment=50&submit=Search

> <Ligand HET ID in PDB>


> <PDB ID(s) for Ligand-Target Complex>


> <PubChem CID>
44312149

> <PubChem SID>
104033684

> <ChEBI ID of Ligand>


> <ChEMBL ID of Ligand>
CHEMBL3759203

> <DrugBank ID of Ligand>


> <IUPHAR_GRAC ID of Ligand>


> <KEGG ID of Ligand>


> <ZINC ID of Ligand>
ZINC36332177

> <Number of Protein Chains in Target (>
1

> <BindingDB Target Chain Sequence>
MRPSGTAGAALLALLAALCPASRALEEKKVCQGTSNKLTQLGTFEDHFLSLQRMFNNCEVVLGNLEITYVQRNYDLSFLKTIQEVAGYVLIALNTVERIPLENLQIIRGNMYYENSYALAVLSNYDANKTGLKELPMRNLQEILHGAVRFSNNPALCNVESIQWRDIVSSDFLSNMSMDFQNHLGSCQKCDPSCPNGSCWGAGEENCQKLTKIICAQQCSGRCRGKSPSDCCHNQCAAGCTGPRESDCLVCRKFRDEATCKDTCPPLMLYNPTTYQMDVNPEGKYSFGATCVKKCPRNYVVTDHGSCVRACGADSYEMEEDGVRKCKKCEGPCRKVCNGIGIGEFKDSLSINATNIKHFKNCTSISGDLHILPVAFRGDSFTHTPPLDPQELDILKTVKEITGFLLIQAWPENRTDLHAFENLEIIRGRTKQHGQFSLAVVSLNITSLGLRSLKEISDGDVIISGNKNLCYANTINWKKLFGTSGQKTKIISNRGENSCKATGQVCHALCSPEGCWGPEPRDCVSCRNVSRGRECVDKCNLLEGEPREFVENSECIQCHPECLPQAMNITCTGRGPDNCIQCAHYIDGPHCVKTCPAGVMGENNTLVWKYADAGHVCHLCHPNCTYGCTGPGLEGCPTNGPKIPSIATGMVGALLLLLVVALGIGLFMRRRHIVRKRTLRRLLQERELVEPLTPSGEAPNQALLRILKETEFKKIKVLGSGAFGTVYKGLWIPEGEKVKIPVAIKELREATSPKANKEILDEAYVMASVDNPHVCRLLGICLTSTVQLITQLMPFGCLLDYVREHKDNIGSQYLLNWCVQIAKGMNYLEDRRLVHRDLAARNVLVKTPQHVKITDFGLAKLLGAEEKEYHAEGGKVPIKWMALESILHRIYTHQSDVWSYGVTVWELMTFGSKPYDGIPASEISSILEKGERLPQPPICTIDVYMIMVKCWMIDADSRPKFRELIIEFSKMARDPQRYLVIQGDERMHLPSPTDSNFYRALMDEEDMDDVVDADEYLIPQQGFFSSPSTSRTPLLSSLSATSNNSTVACIDRNGLQSCPIKEDSFLQRYSSDPTGALTEDSIDDTFLPVPEYINQSVPKRPAGSVQNPVYHNQPLNPAPSRDPHYQDPHSTAVGNPEYLNTVQPTCVNSTFDSPAHWAQKGSHQISLDNPDYQQDFFPKEAKPNGIFKGSTAENAEYLRVAPQSSEFIGA

> <PDB ID(s) of Target Chain>
1IVO,1M14,1M17,1MOX,1XKK,1Z9I,2GS2,2GS6,2ITW,2ITX,2ITY,2J5E,2J5F,2J6M,2RF9,2RGP,3B2V,3BEL,3GOP,3POZ,3QWQ,3VJO,3W2O,3W2P,3W2Q,3W2R,3W2S,3W32,3W33,4G5J,4I23,4JQ7,4JQ8,4JR3,4JRV,4KRO,4LI5,4RJ4,4RJ5,4RJ6,4RJ7,4RJ8,4TKS,4UIP,4UV7,4WKQ,4WRG,4ZAU,5C8K,5C8M,5C8N,5CAL,5CAN,5CAO,5CAP,5CAQ,5CAS,5CAU,5CAV,5EDP,5EDQ,5EDR,5EM5,5EM6,5EM7,5EM8,5FED,5GNK,5HCX,5HCY,5HCZ,5HIB,5HIC,5UGB,5WB7,5WB8,5Y25,6S89,6S8A

> <UniProt (SwissProt) Recommended Name of Target Chain>
Epidermal growth factor receptor

> <UniProt (SwissProt) Entry Name of Target Chain>
EGFR_HUMAN

> <UniProt (SwissProt) Primary ID of Target Chain>
P00533

> <UniProt (SwissProt) Secondary ID(s) of Target Chain>
O00688,O00732,P06268,Q14225,Q68GS5,Q92795,Q9BZS2,Q9GZX1,Q9H2C9,Q9H3C9,Q9UMD7,Q9UMD8,Q9UMG5

> <UniProt (SwissProt) Alternative ID(s) of Target Chain>


> <UniProt (TrEMBL) Submitted Name of Target Chain>


> <UniProt (TrEMBL) Entry Name of Target Chain>


> <UniProt (TrEMBL) Primary ID of Target Chain>


> <UniProt (TrEMBL) Secondary ID(s) of Target Chain>


> <UniProt (TrEMBL) Alternative ID(s) of Target Chain>


> <training label>
6.13668

> <i_lp_mmshare_version>
54117

> <s_epik_input>
W09IXVtDSDJdW0NAQEhdKE8xKVtDQEBIXShbT0hdKVtDQEBIXShbT0hdKVtDQEBIXTFuMltjSF1uYyhjMjMpYyhuW2NIXW4zKVNbQ0gyXWMoW2NIXVtjSF00KVtjSF1bY0hdYzRJ

> <s_epik_cmdline>
J2VwaWtfcHl0aG9uJywgJy1waHQnLCAnMC4xJywgJy1waCcsICc3LjQnLCAnLXRuJywgJzgnLCAnLW1hJywgJzIwMCcsICctaW1hZScsICc8aW5maWxlLm1hZT4nLCAnLW9tYWUnLCAnPG91dGZpbGUubWFlPic=

> <r_lp_tautomer_probability>
1

> <r_epik_Ionization_Penalty>
  0.0001

> <r_epik_Ionization_Penalty_Charging>
  0.0000

> <r_epik_Ionization_Penalty_Neutral>
  0.0001

> <r_epik_State_Penalty>
  0.0000

> <r_epik_Charging_Adjusted_Penalty>
0

> <i_epik_Tot_Q>
0

> <i_epik_Tot_abs_Q>
0

> <i_f3d_flags>
0

> <s_lp_Force_Field>
OPLS_2005

> <r_lp_Energy>
42.301695

> <b_lp_Chiralities_Consistent>
1

> <s_lp_Variant>
BindingDB_50144606_mol_1-12

> <s_i_glide_gridfile>
struct_1_site_1

> <i_i_glide_lignum>
91

> <i_i_glide_rotatable_bonds>
8

> <r_i_docking_score>
-7.24802785177841

> <r_i_glide_ligand_efficiency>
-0.268445475991793

> <r_i_glide_ligand_efficiency_sa>
-0.805336427090626

> <r_i_glide_ligand_efficiency_ln>
-1.68722139081599

> <r_i_glide_gscore>
-7.24802785177841

> <r_i_glide_lipo>
-1.7996359212729

> <r_i_glide_hbond>
-0.264200073257728

> <r_i_glide_metal>
0

> <r_i_glide_rewards>
-2.02195761905161

> <r_i_glide_evdw>
-34.2536926269531

> <r_i_glide_ecoul>
-12.3827772140503

> <r_i_glide_erotb>
0.407866975259027

> <r_i_glide_esite>
0

> <r_i_glide_emodel>
-39.6819867306786

> <r_i_glide_energy>
-46.6364698410034

> <r_i_glide_einternal>
9.82882785797119

> <i_i_glide_confnum>
141

> <i_i_glide_posenum>
204

> <r_i_glide_eff_state_penalty>
0

> <PMID>
26826581

> <s_epik_Chemistry_Notes>
This compound contains an acetal/aminal-like group ( X-CH(R)-Y where X, Y are N, S, or O) that may be acid/base labile, releasing an aldehyde.

> <r_glide_shape_similarity>
0.749309718608856

> <s_m_subgroup_title>
505 training

> <s_m_subgroupid>
pocket_pv

> <b_m_subgroup_collapsed>
0

$$$$
BindingDB_50102070_mol_1
                    3D
 Schrodinger Suite 2021-2.
 51 53  0  0  1  0            999 V2000
   22.0767   -0.1734   53.5096 C   0  0  0  0  0  0
   23.4383   -0.1003   53.8704 C   0  0  0  0  0  0
   21.2701   -1.1137   54.1823 C   0  0  0  0  0  0
   21.5283    0.6416   52.5128 C   0  0  0  0  0  0
   23.9376   -0.9002   54.8257 N   0  0  0  0  0  0
   19.9073   -1.2008   53.8380 C   0  0  0  0  0  0
   24.2874    0.8462   53.2780 N   0  0  0  0  0  0
   20.1805    0.5194   52.1457 C   0  0  0  0  0  0
   19.3489   -0.3776   52.8317 C   0  0  0  0  0  0
   27.8946   -0.0651   53.3867 C   0  0  0  0  0  0
   21.8017   -1.8954   55.1391 N   0  0  0  0  0  0
   26.5033   -0.1942   53.3316 C   0  0  0  0  0  0
   23.0936   -1.7385   55.4103 C   0  0  0  0  0  0
   25.6798    0.9464   53.3428 C   0  0  0  0  0  0
   28.4701    1.2050   53.4579 C   0  0  0  0  0  0
   27.6653    2.3507   53.4291 C   0  0  0  0  0  0
   28.8867   -1.4679   53.3746 Cl  0  0  0  0  0  0
   26.2703    2.2218   53.3677 C   0  0  0  0  0  0
   17.4902    3.0932   49.0981 N   0  3  0  0  0  0
   29.8037    1.3140   53.5717 F   0  0  0  0  0  0
   19.6544    1.2533   51.1180 O   0  0  0  0  0  0
   18.0307   -0.3852   52.4412 O   0  0  0  0  0  0
   19.7307    1.9667   48.8433 C   0  0  0  0  0  0
   18.9579    3.2663   49.0764 C   0  0  0  0  0  0
   20.5425    1.5552   50.0551 C   0  0  0  0  0  0
   16.9158    2.7517   47.7809 C   0  0  0  0  0  0
   16.9925    2.2220   50.1851 C   0  0  0  0  0  0
   17.1119   -1.1376   53.2019 C   0  0  0  0  0  0
   22.1596    1.3529   52.0067 H   0  0  0  0  0  0
   19.2970   -1.9078   54.3784 H   0  0  0  0  0  0
   23.8217    1.6212   52.8383 H   0  0  0  0  0  0
   26.0711   -1.1825   53.2761 H   0  0  0  0  0  0
   23.5051   -2.3807   56.1743 H   0  0  0  0  0  0
   28.1147    3.3325   53.4732 H   0  0  0  0  0  0
   25.6617    3.1157   53.3578 H   0  0  0  0  0  0
   19.0791    1.1394   48.5748 H   0  0  0  0  0  0
   20.4078    2.1010   47.9994 H   0  0  0  0  0  0
   19.2105    3.9847   48.2953 H   0  0  0  0  0  0
   19.2652    3.7406   50.0103 H   0  0  0  0  0  0
   21.1459    0.6827   49.7965 H   0  0  0  0  0  0
   21.2189    2.3647   50.3317 H   0  0  0  0  0  0
   17.1795    1.7433   47.4684 H   0  0  0  0  0  0
   17.2568    3.4471   47.0137 H   0  0  0  0  0  0
   15.8275    2.8118   47.8153 H   0  0  0  0  0  0
   17.2691    1.1786   50.0304 H   0  0  0  0  0  0
   17.3819    2.5434   51.1514 H   0  0  0  0  0  0
   15.9049    2.2676   50.2431 H   0  0  0  0  0  0
   16.1013   -0.9516   52.8389 H   0  0  0  0  0  0
   17.3070   -2.2065   53.1067 H   0  0  0  0  0  0
   17.1388   -0.8652   54.2576 H   0  0  0  0  0  0
   17.1318    4.0126   49.3103 H   0  0  0  0  0  0
  1  2  2  0  0  0
  1  3  1  0  0  0
  1  4  1  0  0  0
  2  5  1  0  0  0
  2  7  1  0  0  0
  3  6  1  0  0  0
  3 11  2  0  0  0
  4  8  2  0  0  0
  4 29  1  0  0  0
  5 13  2  0  0  0
  6  9  2  0  0  0
  6 30  1  0  0  0
  7 14  1  0  0  0
  7 31  1  0  0  0
  8  9  1  0  0  0
  8 21  1  0  0  0
  9 22  1  0  0  0
 10 12  2  0  0  0
 10 15  1  0  0  0
 10 17  1  0  0  0
 11 13  1  0  0  0
 12 14  1  0  0  0
 12 32  1  0  0  0
 13 33  1  0  0  0
 14 18  2  0  0  0
 15 16  2  0  0  0
 15 20  1  0  0  0
 16 18  1  0  0  0
 16 34  1  0  0  0
 18 35  1  0  0  0
 19 24  1  0  0  0
 19 26  1  0  0  0
 19 27  1  0  0  0
 19 51  1  0  0  0
 21 25  1  0  0  0
 22 28  1  0  0  0
 23 24  1  0  0  0
 23 25  1  0  0  0
 23 36  1  0  0  0
 23 37  1  0  0  0
 24 38  1  0  0  0
 24 39  1  0  0  0
 25 40  1  0  0  0
 25 41  1  0  0  0
 26 42  1  0  0  0
 26 43  1  0  0  0
 26 44  1  0  0  0
 27 45  1  0  0  0
 27 46  1  0  0  0
 27 47  1  0  0  0
 28 48  1  0  0  0
 28 49  1  0  0  0
 28 50  1  0  0  0
M  CHG  1  19   1
M  END
> <s_m_entry_id>
349

> <s_m_entry_name>
pocket_pv.160

> <s_m_Source_Path>
/home/bortolaa/Project/GT/mario-master/docking/set505protein_struct_1_site_1_set505ligs_train

> <s_m_Source_File>
pocket_pv.maegz

> <i_m_Source_File_Index>
160

> <From>
www.bindingDB.org

> <BindingDB Reactant_set_id>
50733049

> <Ligand InChI>
InChI=1S/C20H22ClFN4O2/c1-26(2)7-4-8-28-19-10-14-17(11-18(19)27-3)23-12-24-20(14)25-13-5-6-16(22)15(21)9-13/h5-6,9-12H,4,7-8H2,1-3H3,(H,23,24,25)

> <Ligand InChI Key>
BQTOLZHBHCEHJX-UHFFFAOYSA-N

> <BindingDB MonomerID>
50102070

> <BindingDB Ligand Name>
(3-Chloro-4-fluoro-phenyl)-[6-(3-dimethylamino-propoxy)-7-methoxy-quinazolin-4-yl]-amine::CHEMBL57990

> <Target Name Assigned by Curator or DataSource>
Epidermal growth factor receptor

> <Target Source Organism According to Curator or DataSource>
Homo sapiens

> <Ki (nM)>


> <Kd (nM)>


> <EC50 (nM)>


> <kon (M-1-s-1)>


> <koff (s-1)>


> <pH>


> <Temp C>


> <Curation/DataSource>
ChEMBL

> <Article DOI>
10.1016/s0960-894x(01)00344-4

> <PubChem AID>


> <Patent Number>


> <Authors>
Barker, AJ; Gibson, KH; Grundy, W; Godfrey, AA; Barlow, JJ; Healy, MP; Woodburn, JR; Ashton, SE; Curry, BJ; Scarlett, L; Henthorn, L; Richards, L

> <Institution>
AstraZeneca

> <Link to Ligand in BindingDB>
http://www.bindingdb.org/bind/chemsearch/marvin/MolStructure.jsp?monomerid=50102070

> <Link to Ligand-Target Pair in BindingDB>
http://www.bindingdb.org/jsp/dbsearch/PrimarySearch_ki.jsp?energyterm=kJ/mole&tag=r21&monomerid=50102070&enzyme=Epidermal+growth+factor+receptor&column=ki&startPg=0&Increment=50&submit=Search

> <Ligand HET ID in PDB>


> <PDB ID(s) for Ligand-Target Complex>


> <PubChem CID>
19077498

> <PubChem SID>
103998627

> <ChEBI ID of Ligand>


> <ChEMBL ID of Ligand>
CHEMBL57990

> <DrugBank ID of Ligand>


> <IUPHAR_GRAC ID of Ligand>


> <KEGG ID of Ligand>


> <ZINC ID of Ligand>
ZINC01893559

> <Number of Protein Chains in Target (>
1

> <BindingDB Target Chain Sequence>
MRPSGTAGAALLALLAALCPASRALEEKKVCQGTSNKLTQLGTFEDHFLSLQRMFNNCEVVLGNLEITYVQRNYDLSFLKTIQEVAGYVLIALNTVERIPLENLQIIRGNMYYENSYALAVLSNYDANKTGLKELPMRNLQEILHGAVRFSNNPALCNVESIQWRDIVSSDFLSNMSMDFQNHLGSCQKCDPSCPNGSCWGAGEENCQKLTKIICAQQCSGRCRGKSPSDCCHNQCAAGCTGPRESDCLVCRKFRDEATCKDTCPPLMLYNPTTYQMDVNPEGKYSFGATCVKKCPRNYVVTDHGSCVRACGADSYEMEEDGVRKCKKCEGPCRKVCNGIGIGEFKDSLSINATNIKHFKNCTSISGDLHILPVAFRGDSFTHTPPLDPQELDILKTVKEITGFLLIQAWPENRTDLHAFENLEIIRGRTKQHGQFSLAVVSLNITSLGLRSLKEISDGDVIISGNKNLCYANTINWKKLFGTSGQKTKIISNRGENSCKATGQVCHALCSPEGCWGPEPRDCVSCRNVSRGRECVDKCNLLEGEPREFVENSECIQCHPECLPQAMNITCTGRGPDNCIQCAHYIDGPHCVKTCPAGVMGENNTLVWKYADAGHVCHLCHPNCTYGCTGPGLEGCPTNGPKIPSIATGMVGALLLLLVVALGIGLFMRRRHIVRKRTLRRLLQERELVEPLTPSGEAPNQALLRILKETEFKKIKVLGSGAFGTVYKGLWIPEGEKVKIPVAIKELREATSPKANKEILDEAYVMASVDNPHVCRLLGICLTSTVQLITQLMPFGCLLDYVREHKDNIGSQYLLNWCVQIAKGMNYLEDRRLVHRDLAARNVLVKTPQHVKITDFGLAKLLGAEEKEYHAEGGKVPIKWMALESILHRIYTHQSDVWSYGVTVWELMTFGSKPYDGIPASEISSILEKGERLPQPPICTIDVYMIMVKCWMIDADSRPKFRELIIEFSKMARDPQRYLVIQGDERMHLPSPTDSNFYRALMDEEDMDDVVDADEYLIPQQGFFSSPSTSRTPLLSSLSATSNNSTVACIDRNGLQSCPIKEDSFLQRYSSDPTGALTEDSIDDTFLPVPEYINQSVPKRPAGSVQNPVYHNQPLNPAPSRDPHYQDPHSTAVGNPEYLNTVQPTCVNSTFDSPAHWAQKGSHQISLDNPDYQQDFFPKEAKPNGIFKGSTAENAEYLRVAPQSSEFIGA

> <PDB ID(s) of Target Chain>
1IVO,1M14,1M17,1MOX,1XKK,1Z9I,2GS2,2GS6,2ITW,2ITX,2ITY,2J5E,2J5F,2J6M,2RF9,2RGP,3B2V,3BEL,3GOP,3POZ,3QWQ,3VJO,3W2O,3W2P,3W2Q,3W2R,3W2S,3W32,3W33,4G5J,4I23,4JQ7,4JQ8,4JR3,4JRV,4KRO,4LI5,4RJ4,4RJ5,4RJ6,4RJ7,4RJ8,4TKS,4UIP,4UV7,4WKQ,4WRG,4ZAU,5C8K,5C8M,5C8N,5CAL,5CAN,5CAO,5CAP,5CAQ,5CAS,5CAU,5CAV,5EDP,5EDQ,5EDR,5EM5,5EM6,5EM7,5EM8,5FED,5GNK,5HCX,5HCY,5HCZ,5HIB,5HIC,5UGB,5WB7,5WB8,5Y25,6S89,6S8A

> <UniProt (SwissProt) Recommended Name of Target Chain>
Epidermal growth factor receptor

> <UniProt (SwissProt) Entry Name of Target Chain>
EGFR_HUMAN

> <UniProt (SwissProt) Primary ID of Target Chain>
P00533

> <UniProt (SwissProt) Secondary ID(s) of Target Chain>
O00688,O00732,P06268,Q14225,Q68GS5,Q92795,Q9BZS2,Q9GZX1,Q9H2C9,Q9H3C9,Q9UMD7,Q9UMD8,Q9UMG5

> <UniProt (SwissProt) Alternative ID(s) of Target Chain>


> <UniProt (TrEMBL) Submitted Name of Target Chain>


> <UniProt (TrEMBL) Entry Name of Target Chain>


> <UniProt (TrEMBL) Primary ID of Target Chain>


> <UniProt (TrEMBL) Secondary ID(s) of Target Chain>


> <UniProt (TrEMBL) Alternative ID(s) of Target Chain>


> <training label>
7.3098

> <i_lp_mmshare_version>
54117

> <s_epik_input>
W0NIM11OKFtDSDNdKVtDSDJdW0NIMl1bQ0gyXU9jKFtjSF0xKWMoT1tDSDNdKVtjSF1jKGMxMiluW2NIXW5jMltOSF1jKFtjSF1jM0NsKVtjSF1bY0hdYzNG

> <s_epik_cmdline>
J2VwaWtfcHl0aG9uJywgJy1waHQnLCAnMC4xJywgJy1waCcsICc3LjQnLCAnLXRuJywgJzgnLCAnLW1hJywgJzIwMCcsICctaW1hZScsICc8aW5maWxlLm1hZT4nLCAnLW9tYWUnLCAnPG91dGZpbGUubWFlPic=

> <r_lp_tautomer_probability>
1

> <r_epik_Ionization_Penalty>
  0.0114

> <r_epik_Ionization_Penalty_Charging>
  0.0109

> <r_epik_Ionization_Penalty_Neutral>
  0.0005

> <r_epik_State_Penalty>
  0.0000

> <r_epik_Charging_Adjusted_Penalty>
0.0109419619178317

> <i_epik_Tot_Q>
1

> <i_epik_Tot_abs_Q>
1

> <i_f3d_flags>
0

> <s_lp_Force_Field>
OPLS_2005

> <r_lp_Energy>
24.129136

> <b_lp_Chiralities_Consistent>
1

> <s_lp_Variant>
BindingDB_50102070_mol_1-1

> <s_i_glide_gridfile>
struct_1_site_1

> <i_i_glide_lignum>
190

> <i_i_glide_rotatable_bonds>
8

> <r_i_docking_score>
-7.24059265892441

> <r_i_glide_ligand_efficiency>
-0.258592594961586

> <r_i_glide_ligand_efficiency_sa>
-0.78523942119687

> <r_i_glide_ligand_efficiency_ln>
-1.67134137871796

> <r_i_glide_gscore>
-7.24059265892441

> <r_i_glide_lipo>
-2.95359174489319

> <r_i_glide_hbond>
-0.32

> <r_i_glide_metal>
0

> <r_i_glide_rewards>
-1.79963473728974

> <r_i_glide_evdw>
-41.256462097168

> <r_i_glide_ecoul>
-5.04552984237671

> <r_i_glide_erotb>
0.715953884669433

> <r_i_glide_esite>
-0.063667480196009

> <r_i_glide_emodel>
-58.0425034386177

> <r_i_glide_energy>
-46.3019919395447

> <r_i_glide_einternal>
8.31088352203369

> <i_i_glide_confnum>
135

> <i_i_glide_posenum>
292

> <r_i_glide_eff_state_penalty>
0

> <IC50 (nM)>
49

> <PMID>
11459659

> <r_glide_shape_similarity>
0.89460152387619

> <s_m_subgroup_title>
505 training

> <s_m_subgroupid>
pocket_pv

> <b_m_subgroup_collapsed>
0

$$$$
BindingDB_50144606_mol_1
                    3D
 Schrodinger Suite 2021-2.
 44 47  0  0  1  0            999 V2000
   24.6529    0.4489   53.1408 N   0  0  0  0  0  0
   26.1445    0.3236   52.9748 C   0  0  2  0  0  0
   23.8580   -0.2717   53.9923 C   0  0  0  0  0  0
   22.5239   -0.0706   53.5608 C   0  0  0  0  0  0
   22.4668    0.8764   52.5679 N   0  0  0  0  0  0
   26.9233    1.0686   54.0261 C   0  0  2  0  0  0
   23.7651    1.1465   52.4041 C   0  0  0  0  0  0
   26.4993    0.9207   51.7758 O   0  0  0  0  0  0
   26.9386    2.4767   53.4657 C   0  0  1  0  0  0
   27.0243    2.2404   51.9678 C   0  0  2  0  0  0
   21.5759   -0.8935   54.1887 C   0  0  0  0  0  0
   24.2562   -1.1097   54.9766 N   0  0  0  0  0  0
   21.9417   -1.7241   55.1788 N   0  0  0  0  0  0
   19.9068   -1.0093   53.7837 S   0  0  0  0  0  0
   23.2225   -1.7534   55.5150 C   0  0  0  0  0  0
   28.2178    0.5124   54.1135 O   0  0  0  0  0  0
   25.7445    3.1330   53.7737 O   0  0  0  0  0  0
   19.4831   -0.0574   52.3124 C   0  0  0  0  0  0
   15.1724    0.1646   52.4129 C   0  0  0  0  0  0
   17.9705   -0.0560   52.2092 C   0  0  0  0  0  0
   26.3509    3.2327   50.9790 C   0  0  0  0  0  0
   13.1341    0.3609   52.7636 I   0  0  0  0  0  0
   15.8094   -0.9868   52.8594 C   0  0  0  0  0  0
   15.9123    1.1741   51.7771 C   0  0  0  0  0  0
   17.1942   -1.1143   52.7304 C   0  0  0  0  0  0
   17.3153    1.0693   51.6893 C   0  0  0  0  0  0
   27.2806    3.9333   50.1752 O   0  0  0  0  0  0
   26.3114   -0.7511   52.9599 H   0  0  0  0  0  0
   26.4368    0.9966   54.9979 H   0  0  0  0  0  0
   24.0832    1.8187   51.6224 H   0  0  0  0  0  0
   27.7661    3.0882   53.8400 H   0  0  0  0  0  0
   28.0871    2.2347   51.7708 H   0  0  0  0  0  0
   23.4784   -2.4488   56.3046 H   0  0  0  0  0  0
   28.8395    1.2145   54.2117 H   0  0  0  0  0  0
   25.8901    4.0662   53.6140 H   0  0  0  0  0  0
   19.8269    0.9688   52.4327 H   0  0  0  0  0  0
   19.9492   -0.4646   51.4160 H   0  0  0  0  0  0
   25.6876    3.9491   51.4617 H   0  0  0  0  0  0
   25.7343    2.6719   50.2804 H   0  0  0  0  0  0
   15.2461   -1.7612   53.3653 H   0  0  0  0  0  0
   15.4200    2.0690   51.4297 H   0  0  0  0  0  0
   17.6380   -2.0232   53.1066 H   0  0  0  0  0  0
   17.8857    1.8938   51.2830 H   0  0  0  0  0  0
   27.6710    4.6181   50.7323 H   0  0  0  0  0  0
  1  2  1  0  0  0
  1  3  1  0  0  0
  1  7  1  0  0  0
  2  6  1  0  0  0
  2  8  1  0  0  0
  2 28  1  0  0  0
  3  4  2  0  0  0
  3 12  1  0  0  0
  4 11  1  0  0  0
  4  5  1  0  0  0
  5  7  2  0  0  0
  6  9  1  0  0  0
  6 16  1  0  0  0
  6 29  1  0  0  0
  7 30  1  0  0  0
  8 10  1  0  0  0
  9 17  1  0  0  0
  9 10  1  0  0  0
  9 31  1  0  0  0
 10 21  1  0  0  0
 10 32  1  0  0  0
 11 14  1  0  0  0
 11 13  2  0  0  0
 12 15  2  0  0  0
 13 15  1  0  0  0
 14 18  1  0  0  0
 15 33  1  0  0  0
 16 34  1  0  0  0
 17 35  1  0  0  0
 18 20  1  0  0  0
 18 36  1  0  0  0
 18 37  1  0  0  0
 19 24  2  0  0  0
 19 22  1  0  0  0
 19 23  1  0  0  0
 20 25  1  0  0  0
 20 26  2  0  0  0
 21 27  1  0  0  0
 21 38  1  0  0  0
 21 39  1  0  0  0
 23 25  2  0  0  0
 23 40  1  0  0  0
 24 26  1  0  0  0
 24 41  1  0  0  0
 25 42  1  0  0  0
 26 43  1  0  0  0
 27 44  1  0  0  0
M  END
> <s_m_entry_id>
350

> <s_m_entry_name>
pocket_pv.161

> <s_m_Source_Path>
/home/bortolaa/Project/GT/mario-master/docking/set505protein_struct_1_site_1_set505ligs_train

> <s_m_Source_File>
pocket_pv.maegz

> <i_m_Source_File_Index>
161

> <From>
www.bindingDB.org

> <BindingDB Reactant_set_id>
50463846

> <Ligand InChI>
InChI=1S/C29H23ClN4O3/c1-36-26-15-23-25(16-27(26)37-17-19-7-3-2-4-8-19)31-18-32-28(23)33-20-11-13-21(14-12-20)34-29(35)22-9-5-6-10-24(22)30/h2-16,18H,17H2,1H3,(H,34,35)(H,31,32,33)

> <Ligand InChI Key>
JASSTMZJDQXQFP-UHFFFAOYSA-N

> <BindingDB MonomerID>
50144606

> <BindingDB Ligand Name>
CHEMBL3759203

> <Target Name Assigned by Curator or DataSource>
Epidermal growth factor receptor

> <Target Source Organism According to Curator or DataSource>
Homo sapiens

> <Ki (nM)>


> <IC50 (nM)>
730

> <Kd (nM)>


> <EC50 (nM)>


> <kon (M-1-s-1)>


> <koff (s-1)>


> <pH>


> <Temp C>


> <Curation/DataSource>
ChEMBL

> <Article DOI>
10.1016/j.ejmech.2015.12.032

> <PubChem AID>


> <Patent Number>


> <Authors>
Zhang, HQ; Gong, FH; Li, CG; Zhang, C; Wang, YJ; Xu, YG; Sun, LP

> <Institution>
China Pharmaceutical University

> <Link to Ligand in BindingDB>
http://www.bindingdb.org/bind/chemsearch/marvin/MolStructure.jsp?monomerid=50144606

> <Link to Ligand-Target Pair in BindingDB>
http://www.bindingdb.org/jsp/dbsearch/PrimarySearch_ki.jsp?energyterm=kJ/mole&tag=r21&monomerid=50144606&enzyme=Epidermal+growth+factor+receptor&column=ki&startPg=0&Increment=50&submit=Search

> <Ligand HET ID in PDB>


> <PDB ID(s) for Ligand-Target Complex>


> <PubChem CID>
44312149

> <PubChem SID>
104033684

> <ChEBI ID of Ligand>


> <ChEMBL ID of Ligand>
CHEMBL3759203

> <DrugBank ID of Ligand>


> <IUPHAR_GRAC ID of Ligand>


> <KEGG ID of Ligand>


> <ZINC ID of Ligand>
ZINC36332177

> <Number of Protein Chains in Target (>
1

> <BindingDB Target Chain Sequence>
MRPSGTAGAALLALLAALCPASRALEEKKVCQGTSNKLTQLGTFEDHFLSLQRMFNNCEVVLGNLEITYVQRNYDLSFLKTIQEVAGYVLIALNTVERIPLENLQIIRGNMYYENSYALAVLSNYDANKTGLKELPMRNLQEILHGAVRFSNNPALCNVESIQWRDIVSSDFLSNMSMDFQNHLGSCQKCDPSCPNGSCWGAGEENCQKLTKIICAQQCSGRCRGKSPSDCCHNQCAAGCTGPRESDCLVCRKFRDEATCKDTCPPLMLYNPTTYQMDVNPEGKYSFGATCVKKCPRNYVVTDHGSCVRACGADSYEMEEDGVRKCKKCEGPCRKVCNGIGIGEFKDSLSINATNIKHFKNCTSISGDLHILPVAFRGDSFTHTPPLDPQELDILKTVKEITGFLLIQAWPENRTDLHAFENLEIIRGRTKQHGQFSLAVVSLNITSLGLRSLKEISDGDVIISGNKNLCYANTINWKKLFGTSGQKTKIISNRGENSCKATGQVCHALCSPEGCWGPEPRDCVSCRNVSRGRECVDKCNLLEGEPREFVENSECIQCHPECLPQAMNITCTGRGPDNCIQCAHYIDGPHCVKTCPAGVMGENNTLVWKYADAGHVCHLCHPNCTYGCTGPGLEGCPTNGPKIPSIATGMVGALLLLLVVALGIGLFMRRRHIVRKRTLRRLLQERELVEPLTPSGEAPNQALLRILKETEFKKIKVLGSGAFGTVYKGLWIPEGEKVKIPVAIKELREATSPKANKEILDEAYVMASVDNPHVCRLLGICLTSTVQLITQLMPFGCLLDYVREHKDNIGSQYLLNWCVQIAKGMNYLEDRRLVHRDLAARNVLVKTPQHVKITDFGLAKLLGAEEKEYHAEGGKVPIKWMALESILHRIYTHQSDVWSYGVTVWELMTFGSKPYDGIPASEISSILEKGERLPQPPICTIDVYMIMVKCWMIDADSRPKFRELIIEFSKMARDPQRYLVIQGDERMHLPSPTDSNFYRALMDEEDMDDVVDADEYLIPQQGFFSSPSTSRTPLLSSLSATSNNSTVACIDRNGLQSCPIKEDSFLQRYSSDPTGALTEDSIDDTFLPVPEYINQSVPKRPAGSVQNPVYHNQPLNPAPSRDPHYQDPHSTAVGNPEYLNTVQPTCVNSTFDSPAHWAQKGSHQISLDNPDYQQDFFPKEAKPNGIFKGSTAENAEYLRVAPQSSEFIGA

> <PDB ID(s) of Target Chain>
1IVO,1M14,1M17,1MOX,1XKK,1Z9I,2GS2,2GS6,2ITW,2ITX,2ITY,2J5E,2J5F,2J6M,2RF9,2RGP,3B2V,3BEL,3GOP,3POZ,3QWQ,3VJO,3W2O,3W2P,3W2Q,3W2R,3W2S,3W32,3W33,4G5J,4I23,4JQ7,4JQ8,4JR3,4JRV,4KRO,4LI5,4RJ4,4RJ5,4RJ6,4RJ7,4RJ8,4TKS,4UIP,4UV7,4WKQ,4WRG,4ZAU,5C8K,5C8M,5C8N,5CAL,5CAN,5CAO,5CAP,5CAQ,5CAS,5CAU,5CAV,5EDP,5EDQ,5EDR,5EM5,5EM6,5EM7,5EM8,5FED,5GNK,5HCX,5HCY,5HCZ,5HIB,5HIC,5UGB,5WB7,5WB8,5Y25,6S89,6S8A

> <UniProt (SwissProt) Recommended Name of Target Chain>
Epidermal growth factor receptor

> <UniProt (SwissProt) Entry Name of Target Chain>
EGFR_HUMAN

> <UniProt (SwissProt) Primary ID of Target Chain>
P00533

> <UniProt (SwissProt) Secondary ID(s) of Target Chain>
O00688,O00732,P06268,Q14225,Q68GS5,Q92795,Q9BZS2,Q9GZX1,Q9H2C9,Q9H3C9,Q9UMD7,Q9UMD8,Q9UMG5

> <UniProt (SwissProt) Alternative ID(s) of Target Chain>


> <UniProt (TrEMBL) Submitted Name of Target Chain>


> <UniProt (TrEMBL) Entry Name of Target Chain>


> <UniProt (TrEMBL) Primary ID of Target Chain>


> <UniProt (TrEMBL) Secondary ID(s) of Target Chain>


> <UniProt (TrEMBL) Alternative ID(s) of Target Chain>


> <training label>
6.13668

> <i_lp_mmshare_version>
54117

> <s_epik_input>
W09IXVtDSDJdW0NASF0oTzEpW0NAQEhdKFtPSF0pW0NASF0oW09IXSlbQ0BIXTFuMltjSF1uYyhjMjMpYyhuW2NIXW4zKVNbQ0gyXWMoW2NIXVtjSF00KVtjSF1bY0hdYzRJ

> <s_epik_cmdline>
J2VwaWtfcHl0aG9uJywgJy1waHQnLCAnMC4xJywgJy1waCcsICc3LjQnLCAnLXRuJywgJzgnLCAnLW1hJywgJzIwMCcsICctaW1hZScsICc8aW5maWxlLm1hZT4nLCAnLW9tYWUnLCAnPG91dGZpbGUubWFlPic=

> <r_lp_tautomer_probability>
1

> <r_epik_Ionization_Penalty>
  0.0001

> <r_epik_Ionization_Penalty_Charging>
  0.0000

> <r_epik_Ionization_Penalty_Neutral>
  0.0001

> <r_epik_State_Penalty>
  0.0000

> <r_epik_Charging_Adjusted_Penalty>
0

> <i_epik_Tot_Q>
0

> <i_epik_Tot_abs_Q>
0

> <i_f3d_flags>
0

> <s_lp_Force_Field>
OPLS_2005

> <r_lp_Energy>
39.425068

> <b_lp_Chiralities_Consistent>
1

> <s_lp_Variant>
BindingDB_50144606_mol_1-1

> <s_i_glide_gridfile>
struct_1_site_1

> <i_i_glide_lignum>
80

> <i_i_glide_rotatable_bonds>
8

> <r_i_docking_score>
-7.24029362944809

> <r_i_glide_ligand_efficiency>
-0.268159023312892

> <r_i_glide_ligand_efficiency_sa>
-0.804477069054869

> <r_i_glide_ligand_efficiency_ln>
-1.68542099136611

> <r_i_glide_gscore>
-7.24029362944809

> <r_i_glide_lipo>
-1.47156257443539

> <r_i_glide_hbond>
-0.25297961841797

> <r_i_glide_metal>
0

> <r_i_glide_rewards>
-2.06694182719537

> <r_i_glide_evdw>
-34.5874137878418

> <r_i_glide_ecoul>
-13.3663053512573

> <r_i_glide_erotb>
0.285506882681319

> <r_i_glide_esite>
0

> <r_i_glide_emodel>
-37.9569278692325

> <r_i_glide_energy>
-47.9537191390991

> <r_i_glide_einternal>
5.40391874313354

> <i_i_glide_confnum>
350

> <i_i_glide_posenum>
195

> <r_i_glide_eff_state_penalty>
0

> <PMID>
26826581

> <s_epik_Chemistry_Notes>
This compound contains an acetal/aminal-like group ( X-CH(R)-Y where X, Y are N, S, or O) that may be acid/base labile, releasing an aldehyde.

> <r_glide_shape_similarity>
0.701239764690399

> <s_m_subgroup_title>
505 training

> <s_m_subgroupid>
pocket_pv

> <b_m_subgroup_collapsed>
0

$$$$
BindingDB_50308833_mol_1
                    3D
 Schrodinger Suite 2021-2.
 38 40  0  0  1  0            999 V2000
   20.1577    0.5159   52.1737 C   0  0  0  0  0  0
   19.3474   -0.4005   52.8555 C   0  0  0  0  0  0
   19.9117   -1.2152   53.8460 C   0  0  0  0  0  0
   21.5146    0.6423   52.5093 C   0  0  0  0  0  0
   22.0760   -0.1728   53.5063 C   0  0  0  0  0  0
   21.2735   -1.1163   54.1839 C   0  0  0  0  0  0
   21.8051   -1.8967   55.1410 N   0  0  0  0  0  0
   23.0961   -1.7374   55.4104 C   0  0  0  0  0  0
   23.9383   -0.8989   54.8241 N   0  0  0  0  0  0
   23.4383   -0.0993   53.8681 C   0  0  0  0  0  0
   24.2885    0.8470   53.2777 N   0  0  0  0  0  0
   25.6832    0.9474   53.3433 C   0  0  0  0  0  0
   26.5145   -0.1888   53.3339 C   0  0  0  0  0  0
   27.9105   -0.0502   53.3830 C   0  0  0  0  0  0
   28.4906    1.2240   53.4378 C   0  0  0  0  0  0
   27.6688    2.3589   53.4235 C   0  0  0  0  0  0
   26.2728    2.2234   53.3697 C   0  0  0  0  0  0
   28.9095   -1.4463   53.3746 Cl  0  0  0  0  0  0
   19.5857    1.2973   51.2209 O   0  0  0  0  0  0
   18.0212   -0.4939   52.5551 O   0  0  0  0  0  0
   20.2720    1.3704   49.9950 C   0  0  0  0  0  0
   19.2795    1.8804   48.9925 C   0  0  0  0  0  0
   19.1567    3.1365   48.6623 C   0  0  0  0  0  0
   18.9759    4.3972   48.3636 C   0  0  0  0  0  0
   19.2968   -1.9226   54.3819 H   0  0  0  0  0  0
   22.1182    1.3703   51.9907 H   0  0  0  0  0  0
   23.5099   -2.3792   56.1732 H   0  0  0  0  0  0
   23.8225    1.6210   52.8358 H   0  0  0  0  0  0
   26.0874   -1.1795   53.2837 H   0  0  0  0  0  0
   29.5658    1.3341   53.4797 H   0  0  0  0  0  0
   28.1077    3.3462   53.4548 H   0  0  0  0  0  0
   25.6613    3.1152   53.3605 H   0  0  0  0  0  0
   17.5364   -1.0677   53.1232 H   0  0  0  0  0  0
   20.6080    0.3660   49.6888 H   0  0  0  0  0  0
   21.1365    2.0338   50.0609 H   0  0  0  0  0  0
   18.6189    1.1371   48.5748 H   0  0  0  0  0  0
   18.2883    5.0132   48.9246 H   0  0  0  0  0  0
   19.5033    4.8692   47.5482 H   0  0  0  0  0  0
  1  2  2  0  0  0
  1  4  1  0  0  0
  1 19  1  0  0  0
  2  3  1  0  0  0
  2 20  1  0  0  0
  3  6  2  0  0  0
  3 25  1  0  0  0
  4  5  2  0  0  0
  4 26  1  0  0  0
  5  6  1  0  0  0
  5 10  1  0  0  0
  6  7  1  0  0  0
  7  8  2  0  0  0
  8  9  1  0  0  0
  8 27  1  0  0  0
  9 10  2  0  0  0
 10 11  1  0  0  0
 11 12  1  0  0  0
 11 28  1  0  0  0
 12 13  2  0  0  0
 12 17  1  0  0  0
 13 14  1  0  0  0
 13 29  1  0  0  0
 14 15  2  0  0  0
 14 18  1  0  0  0
 15 16  1  0  0  0
 15 30  1  0  0  0
 16 17  2  0  0  0
 16 31  1  0  0  0
 17 32  1  0  0  0
 19 21  1  0  0  0
 20 33  1  0  0  0
 21 22  1  0  0  0
 21 34  1  0  0  0
 21 35  1  0  0  0
 22 23  2  0  0  0
 22 36  1  0  0  0
 23 24  2  0  0  0
 24 37  1  0  0  0
 24 38  1  0  0  0
M  END
> <s_m_entry_id>
351

> <s_m_entry_name>
pocket_pv.162

> <s_m_Source_Path>
/home/bortolaa/Project/GT/mario-master/docking/set505protein_struct_1_site_1_set505ligs_train

> <s_m_Source_File>
pocket_pv.maegz

> <i_m_Source_File_Index>
162

> <From>
www.bindingDB.org

> <BindingDB Reactant_set_id>
50554736

> <Ligand InChI>
InChI=1S/C18H14ClN3O2/c1-2-3-7-24-17-9-14-15(10-16(17)23)20-11-21-18(14)22-13-6-4-5-12(19)8-13/h3-6,8-11,23H,1,7H2,(H,20,21,22)

> <Ligand InChI Key>
HPCAJGIOGMEMOW-UHFFFAOYSA-N

> <BindingDB MonomerID>
50308833

> <BindingDB Ligand Name>
6-(Buta-2,3-dienyloxy)-4-(3'-chlorophenylamino)-7-methoxyquinazoline::CHEMBL609321

> <Target Name Assigned by Curator or DataSource>
Epidermal growth factor receptor

> <Target Source Organism According to Curator or DataSource>
Homo sapiens

> <Ki (nM)>


> <Kd (nM)>


> <EC50 (nM)>


> <kon (M-1-s-1)>


> <koff (s-1)>


> <pH>


> <Temp C>


> <Curation/DataSource>
ChEMBL

> <Article DOI>
10.1016/j.bmc.2009.11.035

> <PubChem AID>


> <Patent Number>


> <Authors>
Ban, HS; Tanaka, Y; Nabeyama, W; Hatori, M; Nakamura, H

> <Institution>
Gakushuin University

> <Link to Ligand in BindingDB>
http://www.bindingdb.org/bind/chemsearch/marvin/MolStructure.jsp?monomerid=50308833

> <Link to Ligand-Target Pair in BindingDB>
http://www.bindingdb.org/jsp/dbsearch/PrimarySearch_ki.jsp?energyterm=kJ/mole&tag=r21&monomerid=50308833&enzyme=Epidermal+growth+factor+receptor&column=ki&startPg=0&Increment=50&submit=Search

> <Ligand HET ID in PDB>


> <PDB ID(s) for Ligand-Target Complex>


> <PubChem CID>
46230528

> <PubChem SID>
104163194

> <ChEBI ID of Ligand>


> <ChEMBL ID of Ligand>
CHEMBL609321

> <DrugBank ID of Ligand>


> <IUPHAR_GRAC ID of Ligand>


> <KEGG ID of Ligand>


> <ZINC ID of Ligand>
ZINC45386748

> <Number of Protein Chains in Target (>
1

> <BindingDB Target Chain Sequence>
MRPSGTAGAALLALLAALCPASRALEEKKVCQGTSNKLTQLGTFEDHFLSLQRMFNNCEVVLGNLEITYVQRNYDLSFLKTIQEVAGYVLIALNTVERIPLENLQIIRGNMYYENSYALAVLSNYDANKTGLKELPMRNLQEILHGAVRFSNNPALCNVESIQWRDIVSSDFLSNMSMDFQNHLGSCQKCDPSCPNGSCWGAGEENCQKLTKIICAQQCSGRCRGKSPSDCCHNQCAAGCTGPRESDCLVCRKFRDEATCKDTCPPLMLYNPTTYQMDVNPEGKYSFGATCVKKCPRNYVVTDHGSCVRACGADSYEMEEDGVRKCKKCEGPCRKVCNGIGIGEFKDSLSINATNIKHFKNCTSISGDLHILPVAFRGDSFTHTPPLDPQELDILKTVKEITGFLLIQAWPENRTDLHAFENLEIIRGRTKQHGQFSLAVVSLNITSLGLRSLKEISDGDVIISGNKNLCYANTINWKKLFGTSGQKTKIISNRGENSCKATGQVCHALCSPEGCWGPEPRDCVSCRNVSRGRECVDKCNLLEGEPREFVENSECIQCHPECLPQAMNITCTGRGPDNCIQCAHYIDGPHCVKTCPAGVMGENNTLVWKYADAGHVCHLCHPNCTYGCTGPGLEGCPTNGPKIPSIATGMVGALLLLLVVALGIGLFMRRRHIVRKRTLRRLLQERELVEPLTPSGEAPNQALLRILKETEFKKIKVLGSGAFGTVYKGLWIPEGEKVKIPVAIKELREATSPKANKEILDEAYVMASVDNPHVCRLLGICLTSTVQLITQLMPFGCLLDYVREHKDNIGSQYLLNWCVQIAKGMNYLEDRRLVHRDLAARNVLVKTPQHVKITDFGLAKLLGAEEKEYHAEGGKVPIKWMALESILHRIYTHQSDVWSYGVTVWELMTFGSKPYDGIPASEISSILEKGERLPQPPICTIDVYMIMVKCWMIDADSRPKFRELIIEFSKMARDPQRYLVIQGDERMHLPSPTDSNFYRALMDEEDMDDVVDADEYLIPQQGFFSSPSTSRTPLLSSLSATSNNSTVACIDRNGLQSCPIKEDSFLQRYSSDPTGALTEDSIDDTFLPVPEYINQSVPKRPAGSVQNPVYHNQPLNPAPSRDPHYQDPHSTAVGNPEYLNTVQPTCVNSTFDSPAHWAQKGSHQISLDNPDYQQDFFPKEAKPNGIFKGSTAENAEYLRVAPQSSEFIGA

> <PDB ID(s) of Target Chain>
1IVO,1M14,1M17,1MOX,1XKK,1Z9I,2GS2,2GS6,2ITW,2ITX,2ITY,2J5E,2J5F,2J6M,2RF9,2RGP,3B2V,3BEL,3GOP,3POZ,3QWQ,3VJO,3W2O,3W2P,3W2Q,3W2R,3W2S,3W32,3W33,4G5J,4I23,4JQ7,4JQ8,4JR3,4JRV,4KRO,4LI5,4RJ4,4RJ5,4RJ6,4RJ7,4RJ8,4TKS,4UIP,4UV7,4WKQ,4WRG,4ZAU,5C8K,5C8M,5C8N,5CAL,5CAN,5CAO,5CAP,5CAQ,5CAS,5CAU,5CAV,5EDP,5EDQ,5EDR,5EM5,5EM6,5EM7,5EM8,5FED,5GNK,5HCX,5HCY,5HCZ,5HIB,5HIC,5UGB,5WB7,5WB8,5Y25,6S89,6S8A

> <UniProt (SwissProt) Recommended Name of Target Chain>
Epidermal growth factor receptor

> <UniProt (SwissProt) Entry Name of Target Chain>
EGFR_HUMAN

> <UniProt (SwissProt) Primary ID of Target Chain>
P00533

> <UniProt (SwissProt) Secondary ID(s) of Target Chain>
O00688,O00732,P06268,Q14225,Q68GS5,Q92795,Q9BZS2,Q9GZX1,Q9H2C9,Q9H3C9,Q9UMD7,Q9UMD8,Q9UMG5

> <UniProt (SwissProt) Alternative ID(s) of Target Chain>


> <UniProt (TrEMBL) Submitted Name of Target Chain>


> <UniProt (TrEMBL) Entry Name of Target Chain>


> <UniProt (TrEMBL) Primary ID of Target Chain>


> <UniProt (TrEMBL) Secondary ID(s) of Target Chain>


> <UniProt (TrEMBL) Alternative ID(s) of Target Chain>


> <training label>
7.77211

> <i_lp_mmshare_version>
54117

> <s_epik_input>
W0NIMl09Qz1bQ0hdW0NIMl1PYyhbY0hdMSljKFtPSF0pW2NIXWMoYzEyKW5bY0hdbmMyW05IXWMzW2NIXWMoQ2wpW2NIXVtjSF1bY0hdMw==

> <s_epik_cmdline>
J2VwaWtfcHl0aG9uJywgJy1waHQnLCAnMC4xJywgJy1waCcsICc3LjQnLCAnLXRuJywgJzgnLCAnLW1hJywgJzIwMCcsICctaW1hZScsICc8aW5maWxlLm1hZT4nLCAnLW9tYWUnLCAnPG91dGZpbGUubWFlPic=

> <r_epik_Ionization_Penalty>
  0.0954

> <r_epik_Ionization_Penalty_Charging>
  0.0000

> <r_epik_Ionization_Penalty_Neutral>
  0.0954

> <r_epik_State_Penalty>
  0.0854

> <r_epik_Charging_Adjusted_Penalty>
0.0854189426940436

> <i_epik_Tot_Q>
0

> <i_epik_Tot_abs_Q>
0

> <i_f3d_flags>
0

> <s_lp_Force_Field>
OPLS_2005

> <r_lp_Energy>
-5.059229

> <b_lp_Chiralities_Consistent>
1

> <s_lp_Variant>
BindingDB_50308833_mol_1-1

> <s_i_glide_gridfile>
struct_1_site_1

> <i_i_glide_lignum>
214

> <i_i_glide_rotatable_bonds>
6

> <r_i_docking_score>
-7.238935687178

> <r_i_glide_ligand_efficiency>
-0.301622320299083

> <r_i_glide_ligand_efficiency_sa>
-0.870029322771286

> <r_i_glide_ligand_efficiency_ln>
-1.73260948305569

> <r_i_glide_gscore>
-7.324335687178

> <r_i_glide_lipo>
-2.75675099808249

> <r_i_glide_hbond>
-0.32

> <r_i_glide_metal>
0

> <r_i_glide_rewards>
-2.25129526385754

> <r_i_glide_evdw>
-38.8420104980469

> <r_i_glide_ecoul>
-5.82666063308716

> <r_i_glide_erotb>
0.819810194627448

> <r_i_glide_esite>
0

> <r_i_glide_emodel>
-51.2583535481747

> <r_i_glide_energy>
-44.668671131134

> <r_i_glide_einternal>
2.1340503692627

> <i_i_glide_confnum>
93

> <i_i_glide_posenum>
25

> <r_i_glide_eff_state_penalty>
0.0854

> <IC50 (nM)>
16.9

> <PMID>
19969465

> <r_glide_shape_similarity>
0.850359082221985

> <s_m_subgroup_title>
505 training

> <s_m_subgroupid>
pocket_pv

> <b_m_subgroup_collapsed>
0

$$$$
Anilinoquinazoline
                    3D
 Schrodinger Suite 2021-2.
 55 58  0  0  1  0            999 V2000
   21.5442    0.6586   52.4763 C   0  0  0  0  0  0
   20.1794    0.5471   52.1216 C   0  0  0  0  0  0
   19.3579   -0.3693   52.8126 C   0  0  0  0  0  0
   19.9082   -1.1973   53.8289 C   0  0  0  0  0  0
   22.0884   -0.1560   53.4972 C   0  0  0  0  0  0
   21.2726   -1.1061   54.1806 C   0  0  0  0  0  0
   23.4576   -0.1020   53.8710 C   0  0  0  0  0  0
   21.7968   -1.9008   55.1454 N   0  0  0  0  0  0
   25.7988    0.5666   53.2590 C   0  0  0  0  0  0
   28.0753    1.4447   53.5393 C   0  0  0  0  0  0
   26.3479   -0.7385   53.1315 C   0  0  0  0  0  0
   27.7313   -0.9644   53.2645 C   0  0  0  0  0  0
   24.3973    0.7549   53.2572 N   0  0  0  0  0  0
   24.0557    1.6430   52.9151 H   0  0  0  0  0  0
   18.0447   -0.3919   52.4086 O   0  0  0  0  0  0
   28.5901    0.1248   53.4993 C   0  0  0  0  0  0
   26.6803    1.6637   53.4201 C   0  0  0  0  0  0
   17.1943   -1.3871   52.9345 C   0  0  0  0  0  0
   15.8128   -1.1387   52.3220 C   0  0  0  0  0  0
   26.1792    2.9185   53.5148 F   0  0  0  0  0  0
   30.2651   -0.1924   53.7741 Cl  0  0  0  0  0  0
   19.5968    1.3049   51.1204 O   0  0  0  0  0  0
   20.3884    1.6340   49.9836 C   0  0  0  0  0  0
   23.0909   -1.7515   55.4231 C   0  0  0  0  0  0
   23.9357   -0.9088   54.8423 N   0  0  0  0  0  0
   15.2517    0.2194   52.7814 C   0  0  0  0  0  0
   13.4139    1.7490   53.0422 C   0  0  0  0  0  0
   11.8706    1.9603   53.0989 C   0  0  0  0  0  0
   11.5826   -0.3273   53.7224 C   0  0  0  0  0  0
   13.1147   -0.5545   53.6735 C   0  0  0  0  0  0
   13.7954    0.3559   52.7297 N   0  0  0  0  0  0
   11.2970    1.0392   54.0402 O   0  0  0  0  0  0
   22.1717    1.3643   51.9533 H   0  0  0  0  0  0
   19.2940   -1.8999   54.3702 H   0  0  0  0  0  0
   28.7372    2.2821   53.7034 H   0  0  0  0  0  0
   25.6996   -1.5889   52.9746 H   0  0  0  0  0  0
   28.1191   -1.9721   53.2157 H   0  0  0  0  0  0
   17.1384   -1.3235   54.0242 H   0  0  0  0  0  0
   17.5607   -2.3804   52.6743 H   0  0  0  0  0  0
   15.1763   -1.9640   52.6329 H   0  0  0  0  0  0
   15.8545   -1.1793   51.2316 H   0  0  0  0  0  0
   19.7372    1.9674   49.1751 H   0  0  0  0  0  0
   21.0806    2.4452   50.2106 H   0  0  0  0  0  0
   20.9512    0.7704   49.6244 H   0  0  0  0  0  0
   23.5049   -2.3988   56.1793 H   0  0  0  0  0  0
   15.7200    1.0023   52.1794 H   0  0  0  0  0  0
   15.5781    0.4068   53.7992 H   0  0  0  0  0  0
   13.8493    2.4251   52.3029 H   0  0  0  0  0  0
   13.8452    2.0266   54.0042 H   0  0  0  0  0  0
   11.6167    2.9758   53.4130 H   0  0  0  0  0  0
   11.4173    1.8141   52.1178 H   0  0  0  0  0  0
   11.1256   -0.9614   54.4824 H   0  0  0  0  0  0
   11.1238   -0.5816   52.7660 H   0  0  0  0  0  0
   13.5205   -0.4172   54.6707 H   0  0  0  0  0  0
   13.2881   -1.5943   53.4097 H   0  0  0  0  0  0
  1  2  1  0  0  0
  1  5  2  0  0  0
  1 33  1  0  0  0
  2  3  2  0  0  0
  2 22  1  0  0  0
  3  4  1  0  0  0
  3 15  1  0  0  0
  4  6  2  0  0  0
  4 34  1  0  0  0
  5  6  1  0  0  0
  5  7  1  0  0  0
  6  8  1  0  0  0
  7 13  1  0  0  0
  7 25  2  0  0  0
  8 24  2  0  0  0
  9 11  1  0  0  0
  9 13  1  0  0  0
  9 17  2  0  0  0
 10 16  2  0  0  0
 10 17  1  0  0  0
 10 35  1  0  0  0
 11 12  2  0  0  0
 11 36  1  0  0  0
 12 16  1  0  0  0
 12 37  1  0  0  0
 13 14  1  0  0  0
 15 18  1  0  0  0
 16 21  1  0  0  0
 17 20  1  0  0  0
 18 19  1  0  0  0
 18 38  1  0  0  0
 18 39  1  0  0  0
 19 26  1  0  0  0
 19 40  1  0  0  0
 19 41  1  0  0  0
 22 23  1  0  0  0
 23 42  1  0  0  0
 23 43  1  0  0  0
 23 44  1  0  0  0
 24 25  1  0  0  0
 24 45  1  0  0  0
 26 31  1  0  0  0
 26 46  1  0  0  0
 26 47  1  0  0  0
 27 28  1  0  0  0
 27 31  1  0  0  0
 27 48  1  0  0  0
 27 49  1  0  0  0
 28 32  1  0  0  0
 28 50  1  0  0  0
 28 51  1  0  0  0
 29 30  1  0  0  0
 29 32  1  0  0  0
 29 52  1  0  0  0
 29 53  1  0  0  0
 30 31  1  0  0  0
 30 54  1  0  0  0
 30 55  1  0  0  0
M  END
> <s_m_entry_id>
352

> <s_m_entry_name>
pocket_pv.163

> <s_m_Source_Path>
/home/bortolaa/Project/GT/mario-master/docking/set505protein_struct_1_site_1_set505ligs_train

> <s_m_Source_File>
pocket_pv.maegz

> <i_m_Source_File_Index>
163

> <From>
www.bindingDB.org

> <BindingDB Reactant_set_id>
7074

> <Ligand InChI>
InChI=1S/C22H24ClFN4O3/c1-29-20-12-16-19(13-21(20)31-8-2-5-28-6-9-30-10-7-28)25-14-26-22(16)27-18-4-3-15(23)11-17(18)24/h3-4,11-14H,2,5-10H2,1H3,(H,25,26,27)

> <Ligand InChI Key>
JNAHSSCHKKAPHI-UHFFFAOYSA-N

> <BindingDB MonomerID>
4639

> <BindingDB Ligand Name>
4-Anilinoquinazoline 7::Anilinoquinazoline deriv. 22::N-(4-chloro-2-fluorophenyl)-6-methoxy-7-[3-(morpholin-4-yl)propoxy]quinazolin-4-amine

> <Target Name Assigned by Curator or DataSource>
Epidermal growth factor receptor

> <Target Source Organism According to Curator or DataSource>
Homo sapiens

> <Ki (nM)>


> <Kd (nM)>


> <EC50 (nM)>


> <kon (M-1-s-1)>


> <koff (s-1)>


> <pH>


> <Curation/DataSource>
Curated from the literature by BindingDB

> <Article DOI>
10.1021/jm011022e

> <PubChem AID>


> <Patent Number>


> <Authors>
Hennequin, LF; Stokes, ES; Thomas, AP; Johnstone, C; Ple, PA; Ogilvie, DJ; Dukes, M; Wedge, SR; Kendrew, J; Curwen, JO

> <Institution>
AstraZeneca

> <Link to Ligand in BindingDB>
http://www.bindingdb.org/bind/chemsearch/marvin/MolStructure.jsp?monomerid=4639

> <Link to Ligand-Target Pair in BindingDB>
http://www.bindingdb.org/jsp/dbsearch/PrimarySearch_ki.jsp?energyterm=kJ/mole&tag=r21&monomerid=4639&enzyme=Epidermal+growth+factor+receptor&column=ki&startPg=0&Increment=50&submit=Search

> <Ligand HET ID in PDB>


> <PDB ID(s) for Ligand-Target Complex>


> <PubChem CID>
5329020

> <PubChem SID>
8034302

> <ChEBI ID of Ligand>


> <ChEMBL ID of Ligand>


> <DrugBank ID of Ligand>


> <IUPHAR_GRAC ID of Ligand>


> <KEGG ID of Ligand>


> <ZINC ID of Ligand>
ZINC28758891

> <Number of Protein Chains in Target (>
1

> <BindingDB Target Chain Sequence>
MRPSGTAGAALLALLAALCPASRALEEKKVCQGTSNKLTQLGTFEDHFLSLQRMFNNCEVVLGNLEITYVQRNYDLSFLKTIQEVAGYVLIALNTVERIPLENLQIIRGNMYYENSYALAVLSNYDANKTGLKELPMRNLQEILHGAVRFSNNPALCNVESIQWRDIVSSDFLSNMSMDFQNHLGSCQKCDPSCPNGSCWGAGEENCQKLTKIICAQQCSGRCRGKSPSDCCHNQCAAGCTGPRESDCLVCRKFRDEATCKDTCPPLMLYNPTTYQMDVNPEGKYSFGATCVKKCPRNYVVTDHGSCVRACGADSYEMEEDGVRKCKKCEGPCRKVCNGIGIGEFKDSLSINATNIKHFKNCTSISGDLHILPVAFRGDSFTHTPPLDPQELDILKTVKEITGFLLIQAWPENRTDLHAFENLEIIRGRTKQHGQFSLAVVSLNITSLGLRSLKEISDGDVIISGNKNLCYANTINWKKLFGTSGQKTKIISNRGENSCKATGQVCHALCSPEGCWGPEPRDCVSCRNVSRGRECVDKCNLLEGEPREFVENSECIQCHPECLPQAMNITCTGRGPDNCIQCAHYIDGPHCVKTCPAGVMGENNTLVWKYADAGHVCHLCHPNCTYGCTGPGLEGCPTNGPKIPSIATGMVGALLLLLVVALGIGLFMRRRHIVRKRTLRRLLQERELVEPLTPSGEAPNQALLRILKETEFKKIKVLGSGAFGTVYKGLWIPEGEKVKIPVAIKELREATSPKANKEILDEAYVMASVDNPHVCRLLGICLTSTVQLITQLMPFGCLLDYVREHKDNIGSQYLLNWCVQIAKGMNYLEDRRLVHRDLAARNVLVKTPQHVKITDFGLAKLLGAEEKEYHAEGGKVPIKWMALESILHRIYTHQSDVWSYGVTVWELMTFGSKPYDGIPASEISSILEKGERLPQPPICTIDVYMIMVKCWMIDADSRPKFRELIIEFSKMARDPQRYLVIQGDERMHLPSPTDSNFYRALMDEEDMDDVVDADEYLIPQQGFFSSPSTSRTPLLSSLSATSNNSTVACIDRNGLQSCPIKEDSFLQRYSSDPTGALTEDSIDDTFLPVPEYINQSVPKRPAGSVQNPVYHNQPLNPAPSRDPHYQDPHSTAVGNPEYLNTVQPTCVNSTFDSPAHWAQKGSHQISLDNPDYQQDFFPKEAKPNGIFKGSTAENAEYLRVAPQSSEFIGA

> <PDB ID(s) of Target Chain>
1IVO,1M14,1M17,1MOX,1XKK,1Z9I,2GS2,2GS6,2ITW,2ITX,2ITY,2J5E,2J5F,2J6M,2RF9,2RGP,3B2V,3BEL,3GOP,3POZ,3QWQ,3VJO,3W2O,3W2P,3W2Q,3W2R,3W2S,3W32,3W33,4G5J,4I23,4JQ7,4JQ8,4JR3,4JRV,4KRO,4LI5,4RJ4,4RJ5,4RJ6,4RJ7,4RJ8,4TKS,4UIP,4UV7,4WKQ,4WRG,4ZAU,5C8K,5C8M,5C8N,5CAL,5CAN,5CAO,5CAP,5CAQ,5CAS,5CAU,5CAV,5EDP,5EDQ,5EDR,5EM5,5EM6,5EM7,5EM8,5FED,5GNK,5HCX,5HCY,5HCZ,5HIB,5HIC,5UGB,5WB7,5WB8,5Y25,6S89,6S8A

> <UniProt (SwissProt) Recommended Name of Target Chain>
Epidermal growth factor receptor

> <UniProt (SwissProt) Entry Name of Target Chain>
EGFR_HUMAN

> <UniProt (SwissProt) Primary ID of Target Chain>
P00533

> <UniProt (SwissProt) Secondary ID(s) of Target Chain>
O00688,O00732,P06268,Q14225,Q68GS5,Q92795,Q9BZS2,Q9GZX1,Q9H2C9,Q9H3C9,Q9UMD7,Q9UMD8,Q9UMG5

> <UniProt (SwissProt) Alternative ID(s) of Target Chain>


> <UniProt (TrEMBL) Submitted Name of Target Chain>


> <UniProt (TrEMBL) Entry Name of Target Chain>


> <UniProt (TrEMBL) Primary ID of Target Chain>


> <UniProt (TrEMBL) Secondary ID(s) of Target Chain>


> <UniProt (TrEMBL) Alternative ID(s) of Target Chain>


> <training label>
7

> <i_lp_mmshare_version>
54117

> <s_epik_input>
W0NIMl0xW0NIMl1PW0NIMl1bQ0gyXU4xW0NIMl1bQ0gyXVtDSDJdT2MoYyhbY0hdMilPW0NIM10pW2NIXWMoYzIzKW5bY0hdbmMzW05IXWM0W2NIXVtjSF1jKENsKVtjSF1jNEY=

> <s_epik_cmdline>
J2VwaWtfcHl0aG9uJywgJy1waHQnLCAnMC4xJywgJy1waCcsICc3LjQnLCAnLXRuJywgJzgnLCAnLW1hJywgJzIwMCcsICctaW1hZScsICc8aW5maWxlLm1hZT4nLCAnLW9tYWUnLCAnPG91dGZpbGUubWFlPic=

> <r_lp_tautomer_probability>
0.999978000241998

> <r_epik_Ionization_Penalty>
  0.1970

> <r_epik_Ionization_Penalty_Charging>
  0.0000

> <r_epik_Ionization_Penalty_Neutral>
  0.1970

> <r_epik_State_Penalty>
  0.1860

> <r_epik_Charging_Adjusted_Penalty>
0.186024314191534

> <i_epik_Tot_Q>
0

> <i_epik_Tot_abs_Q>
0

> <i_f3d_flags>
0

> <s_lp_Force_Field>
OPLS_2005

> <r_lp_Energy>
39.826761

> <b_lp_Chiralities_Consistent>
1

> <s_lp_Variant>
Anilinoquinazoline-1

> <s_i_glide_gridfile>
struct_1_site_1

> <i_i_glide_lignum>
156

> <i_i_glide_rotatable_bonds>
8

> <r_i_docking_score>
-7.23856908288817

> <r_i_glide_ligand_efficiency>
-0.233502228480264

> <r_i_glide_ligand_efficiency_sa>
-0.733519381998542

> <r_i_glide_ligand_efficiency_ln>
-1.63251916369224

> <r_i_glide_gscore>
-7.42456908288817

> <r_i_glide_lipo>
-3.27306765931705

> <r_i_glide_hbond>
-0.32

> <r_i_glide_metal>
0

> <r_i_glide_rewards>
-1.50321492721114

> <r_i_glide_evdw>
-44.6883087158203

> <r_i_glide_ecoul>
-3.96876907348633

> <r_i_glide_erotb>
0.601444300453987

> <r_i_glide_esite>
-0.1

> <r_i_glide_emodel>
-48.5816060154645

> <r_i_glide_energy>
-48.6570777893066

> <r_i_glide_einternal>
4.65994691848755

> <i_i_glide_confnum>
126

> <i_i_glide_posenum>
374

> <r_i_glide_eff_state_penalty>
0.186

> <IC50 (nM)>
100

> <PMID>
11881999

> <Temp C>
25

> <r_glide_shape_similarity>
0.802687287330627

> <s_m_subgroup_title>
505 training

> <s_m_subgroupid>
pocket_pv

> <b_m_subgroup_collapsed>
0

$$$$
BindingDB_50189997_mol_1
                    3D
 Schrodinger Suite 2021-2.
 55 58  0  0  1  0            999 V2000
   21.7910   -1.8579   55.1859 N   0  0  0  0  0  0
   23.0901   -1.6901   55.4453 C   0  0  0  0  0  0
   23.9345   -0.8691   54.8319 N   0  0  0  0  0  0
   23.4319   -0.0919   53.8550 C   0  0  0  0  0  0
   21.2618   -1.1031   54.1910 C   0  0  0  0  0  0
   22.0629   -0.1662   53.4812 C   0  0  0  0  0  0
   21.4948    0.6222   52.4456 C   0  0  0  0  0  0
   20.1317    0.4668   52.0818 C   0  0  0  0  0  0
   19.3112   -0.4089   52.8280 C   0  0  0  0  0  0
   19.8922   -1.1997   53.8609 C   0  0  0  0  0  0
   17.9681   -0.4460   52.4826 O   0  0  0  0  0  0
   17.0618   -1.1690   53.3043 C   0  0  0  0  0  0
   19.5297    1.0917   50.9987 O   0  0  0  0  0  0
   20.3397    1.6580   49.9643 C   0  0  0  0  0  0
   20.5531    3.1536   50.2850 C   0  0  0  0  0  0
   21.9517    3.7183   49.8978 C   0  0  0  0  0  0
   22.2693    5.0213   50.5234 N   0  0  0  0  0  0
   23.7049    5.3762   50.4107 C   0  0  0  0  0  0
   24.0287    6.7336   51.1013 C   0  0  0  0  0  0
   23.1952    7.7717   50.5614 O   0  0  0  0  0  0
   21.7875    7.4986   50.6714 C   0  0  0  0  0  0
   21.4511    6.1386   49.9934 C   0  0  0  0  0  0
   24.2869    0.8452   53.2495 N   0  0  0  0  0  0
   25.6858    0.9398   53.3338 C   0  0  0  0  0  0
   26.5179   -0.2042   53.3358 C   0  0  0  0  0  0
   27.9211   -0.0640   53.3909 C   0  0  0  0  0  0
   28.5007    1.2239   53.4456 C   0  0  0  0  0  0
   27.6752    2.3664   53.4299 C   0  0  0  0  0  0
   26.2706    2.2234   53.3715 C   0  0  0  0  0  0
   28.9268   -1.4723   53.3778 Cl  0  0  0  0  0  0
   25.4673    3.3129   53.3562 F   0  0  0  0  0  0
   23.5102   -2.3198   56.2160 H   0  0  0  0  0  0
   22.1168    1.3104   51.8974 H   0  0  0  0  0  0
   19.2862   -1.8916   54.4311 H   0  0  0  0  0  0
   16.0392   -0.9937   52.9721 H   0  0  0  0  0  0
   17.2522   -2.2450   53.2414 H   0  0  0  0  0  0
   17.1326   -0.8615   54.3477 H   0  0  0  0  0  0
   19.8126    1.5655   49.0146 H   0  0  0  0  0  0
   21.2760    1.1114   49.8489 H   0  0  0  0  0  0
   20.4441    3.2994   51.3573 H   0  0  0  0  0  0
   19.7605    3.7387   49.8236 H   0  0  0  0  0  0
   22.0500    3.7787   48.8138 H   0  0  0  0  0  0
   22.6999    2.9906   50.2208 H   0  0  0  0  0  0
   23.9875    5.4328   49.3631 H   0  0  0  0  0  0
   24.3153    4.5940   50.8639 H   0  0  0  0  0  0
   23.8813    6.6654   52.1795 H   0  0  0  0  0  0
   25.0757    6.9967   50.9450 H   0  0  0  0  0  0
   21.5004    7.4982   51.7285 H   0  0  0  0  0  0
   21.2287    8.3042   50.1930 H   0  0  0  0  0  0
   20.3942    5.9223   50.1289 H   0  0  0  0  0  0
   21.6183    6.2268   48.9187 H   0  0  0  0  0  0
   23.8193    1.6531   52.8561 H   0  0  0  0  0  0
   26.0901   -1.1883   53.2875 H   0  0  0  0  0  0
   29.5767    1.3316   53.4850 H   0  0  0  0  0  0
   28.1153    3.3534   53.4594 H   0  0  0  0  0  0
  1  2  1  0  0  0
  1  5  2  0  0  0
  2  3  2  0  0  0
  2 32  1  0  0  0
  3  4  1  0  0  0
  4  6  2  0  0  0
  4 23  1  0  0  0
  5  6  1  0  0  0
  5 10  1  0  0  0
  6  7  1  0  0  0
  7  8  2  0  0  0
  7 33  1  0  0  0
  8  9  1  0  0  0
  8 13  1  0  0  0
  9 10  2  0  0  0
  9 11  1  0  0  0
 10 34  1  0  0  0
 11 12  1  0  0  0
 12 35  1  0  0  0
 12 36  1  0  0  0
 12 37  1  0  0  0
 13 14  1  0  0  0
 14 15  1  0  0  0
 14 38  1  0  0  0
 14 39  1  0  0  0
 15 16  1  0  0  0
 15 40  1  0  0  0
 15 41  1  0  0  0
 16 17  1  0  0  0
 16 42  1  0  0  0
 16 43  1  0  0  0
 17 18  1  0  0  0
 17 22  1  0  0  0
 18 19  1  0  0  0
 18 44  1  0  0  0
 18 45  1  0  0  0
 19 20  1  0  0  0
 19 46  1  0  0  0
 19 47  1  0  0  0
 20 21  1  0  0  0
 21 22  1  0  0  0
 21 48  1  0  0  0
 21 49  1  0  0  0
 22 50  1  0  0  0
 22 51  1  0  0  0
 23 24  1  0  0  0
 23 52  1  0  0  0
 24 25  2  0  0  0
 24 29  1  0  0  0
 25 26  1  0  0  0
 25 53  1  0  0  0
 26 27  2  0  0  0
 26 30  1  0  0  0
 27 28  1  0  0  0
 27 54  1  0  0  0
 28 29  2  0  0  0
 28 55  1  0  0  0
 29 31  1  0  0  0
M  END
> <s_m_entry_id>
353

> <s_m_entry_name>
pocket_pv.164

> <s_m_Source_Path>
/home/bortolaa/Project/GT/mario-master/docking/set505protein_struct_1_site_1_set505ligs_train

> <s_m_Source_File>
pocket_pv.maegz

> <i_m_Source_File_Index>
164

> <From>
www.bindingDB.org

> <BindingDB Reactant_set_id>
50351568

> <Ligand InChI>
InChI=1S/C22H24ClFN4O3/c1-29-20-13-18-16(12-21(20)31-8-2-5-28-6-9-30-10-7-28)22(26-14-25-18)27-19-11-15(23)3-4-17(19)24/h3-4,11-14H,2,5-10H2,1H3,(H,25,26,27)

> <Ligand InChI Key>
DUCBKFANLUPMGX-UHFFFAOYSA-N

> <BindingDB MonomerID>
50189997

> <BindingDB Ligand Name>
CHEMBL384699::N-(5-chloro-2-fluorophenyl)-7-methoxy-6-(3-morpholinopropoxy)quinazolin-4-amine

> <Target Name Assigned by Curator or DataSource>
Epidermal growth factor receptor

> <Target Source Organism According to Curator or DataSource>
Homo sapiens

> <Ki (nM)>


> <Kd (nM)>


> <EC50 (nM)>


> <kon (M-1-s-1)>


> <koff (s-1)>


> <pH>


> <Temp C>


> <Curation/DataSource>
ChEMBL

> <Article DOI>
10.1016/j.bmcl.2006.06.054

> <PubChem AID>


> <Patent Number>


> <Authors>
Ballard, P; Bradbury, RH; Harris, CS; Hennequin, LF; Hickinson, M; Kettle, JG; Kendrew, J; Klinowska, T; Ogilvie, DJ; Pearson, SE; Williams, EJ; Wilson, I

> <Institution>
AstraZeneca

> <Link to Ligand in BindingDB>
http://www.bindingdb.org/bind/chemsearch/marvin/MolStructure.jsp?monomerid=50189997

> <Link to Ligand-Target Pair in BindingDB>
http://www.bindingdb.org/jsp/dbsearch/PrimarySearch_ki.jsp?energyterm=kJ/mole&tag=r21&monomerid=50189997&enzyme=Epidermal+growth+factor+receptor&column=ki&startPg=0&Increment=50&submit=Search

> <Ligand HET ID in PDB>


> <PDB ID(s) for Ligand-Target Complex>


> <PubChem CID>
44416407

> <PubChem SID>
104073419

> <ChEBI ID of Ligand>


> <ChEMBL ID of Ligand>
CHEMBL384699

> <DrugBank ID of Ligand>


> <IUPHAR_GRAC ID of Ligand>


> <KEGG ID of Ligand>


> <ZINC ID of Ligand>
ZINC34800128

> <Number of Protein Chains in Target (>
1

> <BindingDB Target Chain Sequence>
MRPSGTAGAALLALLAALCPASRALEEKKVCQGTSNKLTQLGTFEDHFLSLQRMFNNCEVVLGNLEITYVQRNYDLSFLKTIQEVAGYVLIALNTVERIPLENLQIIRGNMYYENSYALAVLSNYDANKTGLKELPMRNLQEILHGAVRFSNNPALCNVESIQWRDIVSSDFLSNMSMDFQNHLGSCQKCDPSCPNGSCWGAGEENCQKLTKIICAQQCSGRCRGKSPSDCCHNQCAAGCTGPRESDCLVCRKFRDEATCKDTCPPLMLYNPTTYQMDVNPEGKYSFGATCVKKCPRNYVVTDHGSCVRACGADSYEMEEDGVRKCKKCEGPCRKVCNGIGIGEFKDSLSINATNIKHFKNCTSISGDLHILPVAFRGDSFTHTPPLDPQELDILKTVKEITGFLLIQAWPENRTDLHAFENLEIIRGRTKQHGQFSLAVVSLNITSLGLRSLKEISDGDVIISGNKNLCYANTINWKKLFGTSGQKTKIISNRGENSCKATGQVCHALCSPEGCWGPEPRDCVSCRNVSRGRECVDKCNLLEGEPREFVENSECIQCHPECLPQAMNITCTGRGPDNCIQCAHYIDGPHCVKTCPAGVMGENNTLVWKYADAGHVCHLCHPNCTYGCTGPGLEGCPTNGPKIPSIATGMVGALLLLLVVALGIGLFMRRRHIVRKRTLRRLLQERELVEPLTPSGEAPNQALLRILKETEFKKIKVLGSGAFGTVYKGLWIPEGEKVKIPVAIKELREATSPKANKEILDEAYVMASVDNPHVCRLLGICLTSTVQLITQLMPFGCLLDYVREHKDNIGSQYLLNWCVQIAKGMNYLEDRRLVHRDLAARNVLVKTPQHVKITDFGLAKLLGAEEKEYHAEGGKVPIKWMALESILHRIYTHQSDVWSYGVTVWELMTFGSKPYDGIPASEISSILEKGERLPQPPICTIDVYMIMVKCWMIDADSRPKFRELIIEFSKMARDPQRYLVIQGDERMHLPSPTDSNFYRALMDEEDMDDVVDADEYLIPQQGFFSSPSTSRTPLLSSLSATSNNSTVACIDRNGLQSCPIKEDSFLQRYSSDPTGALTEDSIDDTFLPVPEYINQSVPKRPAGSVQNPVYHNQPLNPAPSRDPHYQDPHSTAVGNPEYLNTVQPTCVNSTFDSPAHWAQKGSHQISLDNPDYQQDFFPKEAKPNGIFKGSTAENAEYLRVAPQSSEFIGA

> <PDB ID(s) of Target Chain>
1IVO,1M14,1M17,1MOX,1XKK,1Z9I,2GS2,2GS6,2ITW,2ITX,2ITY,2J5E,2J5F,2J6M,2RF9,2RGP,3B2V,3BEL,3GOP,3POZ,3QWQ,3VJO,3W2O,3W2P,3W2Q,3W2R,3W2S,3W32,3W33,4G5J,4I23,4JQ7,4JQ8,4JR3,4JRV,4KRO,4LI5,4RJ4,4RJ5,4RJ6,4RJ7,4RJ8,4TKS,4UIP,4UV7,4WKQ,4WRG,4ZAU,5C8K,5C8M,5C8N,5CAL,5CAN,5CAO,5CAP,5CAQ,5CAS,5CAU,5CAV,5EDP,5EDQ,5EDR,5EM5,5EM6,5EM7,5EM8,5FED,5GNK,5HCX,5HCY,5HCZ,5HIB,5HIC,5UGB,5WB7,5WB8,5Y25,6S89,6S8A

> <UniProt (SwissProt) Recommended Name of Target Chain>
Epidermal growth factor receptor

> <UniProt (SwissProt) Entry Name of Target Chain>
EGFR_HUMAN

> <UniProt (SwissProt) Primary ID of Target Chain>
P00533

> <UniProt (SwissProt) Secondary ID(s) of Target Chain>
O00688,O00732,P06268,Q14225,Q68GS5,Q92795,Q9BZS2,Q9GZX1,Q9H2C9,Q9H3C9,Q9UMD7,Q9UMD8,Q9UMG5

> <UniProt (SwissProt) Alternative ID(s) of Target Chain>


> <UniProt (TrEMBL) Submitted Name of Target Chain>


> <UniProt (TrEMBL) Entry Name of Target Chain>


> <UniProt (TrEMBL) Primary ID of Target Chain>


> <UniProt (TrEMBL) Secondary ID(s) of Target Chain>


> <UniProt (TrEMBL) Alternative ID(s) of Target Chain>


> <training label>
7.29243

> <i_lp_mmshare_version>
54117

> <s_epik_input>
RmMxW2NIXVtjSF1jKENsKVtjSF1jMVtOSF1jKG5bY0hdbjIpYyhjMjMpW2NIXWMoYyhbY0hdMylPW0NIM10pT1tDSDJdW0NIMl1bQ0gyXU40W0NIMl1bQ0gyXU9bQ0gyXVtDSDJdNA==

> <s_epik_cmdline>
J2VwaWtfcHl0aG9uJywgJy1waHQnLCAnMC4xJywgJy1waCcsICc3LjQnLCAnLXRuJywgJzgnLCAnLW1hJywgJzIwMCcsICctaW1hZScsICc8aW5maWxlLm1hZT4nLCAnLW9tYWUnLCAnPG91dGZpbGUubWFlPic=

> <r_lp_tautomer_probability>
0.999978000241998

> <r_epik_Ionization_Penalty>
  0.1968

> <r_epik_Ionization_Penalty_Charging>
  0.0000

> <r_epik_Ionization_Penalty_Neutral>
  0.1968

> <r_epik_State_Penalty>
  0.1860

> <r_epik_Charging_Adjusted_Penalty>
0.186024314191534

> <i_epik_Tot_Q>
0

> <i_epik_Tot_abs_Q>
0

> <i_f3d_flags>
0

> <s_lp_Force_Field>
OPLS_2005

> <r_lp_Energy>
36.364072

> <b_lp_Chiralities_Consistent>
1

> <s_lp_Variant>
BindingDB_50189997_mol_1-1

> <s_i_glide_gridfile>
struct_1_site_1

> <i_i_glide_lignum>
186

> <i_i_glide_rotatable_bonds>
8

> <r_i_docking_score>
-7.21241615743079

> <r_i_glide_ligand_efficiency>
-0.232658585723574

> <r_i_glide_ligand_efficiency_sa>
-0.730869178968181

> <r_i_glide_ligand_efficiency_ln>
-1.62662087751069

> <r_i_glide_gscore>
-7.39841615743079

> <r_i_glide_lipo>
-3.04324089722566

> <r_i_glide_hbond>
-0.32

> <r_i_glide_metal>
0

> <r_i_glide_rewards>
-1.53104278320092

> <r_i_glide_evdw>
-46.1793937683105

> <r_i_glide_ecoul>
-4.64404726028442

> <r_i_glide_erotb>
0.601444300453987

> <r_i_glide_esite>
-0.1

> <r_i_glide_emodel>
-49.6762155530241

> <r_i_glide_energy>
-50.823441028595

> <r_i_glide_einternal>
5.28614950180054

> <i_i_glide_confnum>
43

> <i_i_glide_posenum>
22

> <r_i_glide_eff_state_penalty>
0.186

> <IC50 (nM)>
51

> <PMID>
16806916

> <r_glide_shape_similarity>
0.772520124912262

> <s_m_subgroup_title>
505 training

> <s_m_subgroupid>
pocket_pv

> <b_m_subgroup_collapsed>
0

$$$$
BindingDB_50308824_mol_1
                    3D
 Schrodinger Suite 2021-2.
 50 52  0  0  1  0            999 V2000
   20.1152    0.5123   52.1431 C   0  0  0  0  0  0
   19.3114   -0.4146   52.8445 C   0  0  0  0  0  0
   19.8954   -1.2224   53.8561 C   0  0  0  0  0  0
   21.4930    0.6427   52.4817 C   0  0  0  0  0  0
   22.0650   -0.1694   53.4973 C   0  0  0  0  0  0
   21.2649   -1.1215   54.1880 C   0  0  0  0  0  0
   21.8017   -1.9095   55.1480 N   0  0  0  0  0  0
   23.0986   -1.7519   55.4193 C   0  0  0  0  0  0
   23.9407   -0.9048   54.8294 N   0  0  0  0  0  0
   23.4344   -0.0960   53.8670 C   0  0  0  0  0  0
   24.2824    0.8556   53.2713 N   0  0  0  0  0  0
   25.6809    0.9476   53.3395 C   0  0  0  0  0  0
   26.5083   -0.2049   53.3318 C   0  0  0  0  0  0
   27.9128   -0.0829   53.3881 C   0  0  0  0  0  0
   28.4922    1.2040   53.4643 C   0  0  0  0  0  0
   27.6781    2.3592   53.4317 C   0  0  0  0  0  0
   26.2733    2.2316   53.3700 C   0  0  0  0  0  0
   28.9163   -1.4990   53.3752 Cl  0  0  0  0  0  0
   19.4320    1.2119   51.1642 O   0  0  0  0  0  0
   19.9987    2.3172   50.4799 C   0  0  0  0  0  0
   17.9682   -0.4598   52.4878 O   0  0  0  0  0  0
   17.0609   -1.2019   53.2945 C   0  0  0  0  0  0
   19.6847    2.1213   48.9850 C   0  0  0  0  0  0
   20.2502    3.2484   48.1031 C   0  0  0  0  0  0
   21.8083    3.3197   48.0966 C   0  0  0  0  0  0
   29.8339    1.3213   53.5915 F   0  0  0  0  0  0
   22.4067    4.4523   47.2197 C   0  0  0  0  0  0
   22.1365    4.3239   45.7633 C   0  0  0  0  0  0
   21.8869    4.1822   44.5726 C   0  0  0  0  0  0
   19.2997   -1.9338   54.4059 H   0  0  0  0  0  0
   22.1259    1.3400   51.9594 H   0  0  0  0  0  0
   23.5127   -2.4056   56.1728 H   0  0  0  0  0  0
   23.8177    1.6343   52.8203 H   0  0  0  0  0  0
   26.0741   -1.1889   53.2732 H   0  0  0  0  0  0
   28.1337    3.3386   53.4787 H   0  0  0  0  0  0
   25.6642    3.1271   53.3568 H   0  0  0  0  0  0
   21.0652    2.4410   50.6363 H   0  0  0  0  0  0
   19.5145    3.2290   50.8453 H   0  0  0  0  0  0
   16.0401   -1.0401   52.9414 H   0  0  0  0  0  0
   17.2719   -2.2706   53.2329 H   0  0  0  0  0  0
   17.1076   -0.8868   54.3352 H   0  0  0  0  0  0
   18.6024    2.0630   48.8417 H   0  0  0  0  0  0
   20.0870    1.1609   48.6575 H   0  0  0  0  0  0
   19.8424    4.2058   48.4289 H   0  0  0  0  0  0
   19.8897    3.1056   47.0873 H   0  0  0  0  0  0
   22.2163    2.3616   47.7726 H   0  0  0  0  0  0
   22.1815    3.4742   49.1054 H   0  0  0  0  0  0
   23.4871    4.4851   47.3550 H   0  0  0  0  0  0
   22.0265    5.4197   47.5502 H   0  0  0  0  0  0
   21.6589    4.0565   43.5377 H   0  0  0  0  0  0
  1  2  2  0  0  0
  1  4  1  0  0  0
  1 19  1  0  0  0
  2  3  1  0  0  0
  2 21  1  0  0  0
  3  6  2  0  0  0
  3 30  1  0  0  0
  4  5  2  0  0  0
  4 31  1  0  0  0
  5  6  1  0  0  0
  5 10  1  0  0  0
  6  7  1  0  0  0
  7  8  2  0  0  0
  8  9  1  0  0  0
  8 32  1  0  0  0
  9 10  2  0  0  0
 10 11  1  0  0  0
 11 12  1  0  0  0
 11 33  1  0  0  0
 12 13  1  0  0  0
 12 17  2  0  0  0
 13 14  2  0  0  0
 13 34  1  0  0  0
 14 15  1  0  0  0
 14 18  1  0  0  0
 15 16  2  0  0  0
 15 26  1  0  0  0
 16 17  1  0  0  0
 16 35  1  0  0  0
 17 36  1  0  0  0
 19 20  1  0  0  0
 20 23  1  0  0  0
 20 37  1  0  0  0
 20 38  1  0  0  0
 21 22  1  0  0  0
 22 39  1  0  0  0
 22 40  1  0  0  0
 22 41  1  0  0  0
 23 24  1  0  0  0
 23 42  1  0  0  0
 23 43  1  0  0  0
 24 25  1  0  0  0
 24 44  1  0  0  0
 24 45  1  0  0  0
 25 27  1  0  0  0
 25 46  1  0  0  0
 25 47  1  0  0  0
 27 28  1  0  0  0
 27 48  1  0  0  0
 27 49  1  0  0  0
 28 29  3  0  0  0
 29 50  1  0  0  0
M  END
> <s_m_entry_id>
354

> <s_m_entry_name>
pocket_pv.165

> <s_m_Source_Path>
/home/bortolaa/Project/GT/mario-master/docking/set505protein_struct_1_site_1_set505ligs_train

> <s_m_Source_File>
pocket_pv.maegz

> <i_m_Source_File_Index>
165

> <From>
www.bindingDB.org

> <BindingDB Reactant_set_id>
50554727

> <Ligand InChI>
InChI=1S/C22H21ClFN3O2/c1-3-4-5-6-7-10-29-21-12-16-19(13-20(21)28-2)25-14-26-22(16)27-15-8-9-18(24)17(23)11-15/h1,8-9,11-14H,4-7,10H2,2H3,(H,25,26,27)

> <Ligand InChI Key>
FNGTVKLEDZVBQG-UHFFFAOYSA-N

> <BindingDB MonomerID>
50308824

> <BindingDB Ligand Name>
4-(3'-Chloro-4'-fluoroanilino)-6-(hept-6-ynyloxy)-7-methoxyquinazoline::CHEMBL590558

> <Target Name Assigned by Curator or DataSource>
Epidermal growth factor receptor

> <Target Source Organism According to Curator or DataSource>
Homo sapiens

> <Ki (nM)>


> <Kd (nM)>


> <EC50 (nM)>


> <kon (M-1-s-1)>


> <koff (s-1)>


> <pH>


> <Temp C>


> <Curation/DataSource>
ChEMBL

> <Article DOI>
10.1016/j.bmc.2009.11.035

> <PubChem AID>


> <Patent Number>


> <Authors>
Ban, HS; Tanaka, Y; Nabeyama, W; Hatori, M; Nakamura, H

> <Institution>
Gakushuin University

> <Link to Ligand in BindingDB>
http://www.bindingdb.org/bind/chemsearch/marvin/MolStructure.jsp?monomerid=50308824

> <Link to Ligand-Target Pair in BindingDB>
http://www.bindingdb.org/jsp/dbsearch/PrimarySearch_ki.jsp?energyterm=kJ/mole&tag=r21&monomerid=50308824&enzyme=Epidermal+growth+factor+receptor&column=ki&startPg=0&Increment=50&submit=Search

> <Ligand HET ID in PDB>


> <PDB ID(s) for Ligand-Target Complex>


> <PubChem CID>
46229813

> <PubChem SID>
104163185

> <ChEBI ID of Ligand>


> <ChEMBL ID of Ligand>
CHEMBL590558

> <DrugBank ID of Ligand>


> <IUPHAR_GRAC ID of Ligand>


> <KEGG ID of Ligand>


> <ZINC ID of Ligand>
ZINC45337171

> <Number of Protein Chains in Target (>
1

> <BindingDB Target Chain Sequence>
MRPSGTAGAALLALLAALCPASRALEEKKVCQGTSNKLTQLGTFEDHFLSLQRMFNNCEVVLGNLEITYVQRNYDLSFLKTIQEVAGYVLIALNTVERIPLENLQIIRGNMYYENSYALAVLSNYDANKTGLKELPMRNLQEILHGAVRFSNNPALCNVESIQWRDIVSSDFLSNMSMDFQNHLGSCQKCDPSCPNGSCWGAGEENCQKLTKIICAQQCSGRCRGKSPSDCCHNQCAAGCTGPRESDCLVCRKFRDEATCKDTCPPLMLYNPTTYQMDVNPEGKYSFGATCVKKCPRNYVVTDHGSCVRACGADSYEMEEDGVRKCKKCEGPCRKVCNGIGIGEFKDSLSINATNIKHFKNCTSISGDLHILPVAFRGDSFTHTPPLDPQELDILKTVKEITGFLLIQAWPENRTDLHAFENLEIIRGRTKQHGQFSLAVVSLNITSLGLRSLKEISDGDVIISGNKNLCYANTINWKKLFGTSGQKTKIISNRGENSCKATGQVCHALCSPEGCWGPEPRDCVSCRNVSRGRECVDKCNLLEGEPREFVENSECIQCHPECLPQAMNITCTGRGPDNCIQCAHYIDGPHCVKTCPAGVMGENNTLVWKYADAGHVCHLCHPNCTYGCTGPGLEGCPTNGPKIPSIATGMVGALLLLLVVALGIGLFMRRRHIVRKRTLRRLLQERELVEPLTPSGEAPNQALLRILKETEFKKIKVLGSGAFGTVYKGLWIPEGEKVKIPVAIKELREATSPKANKEILDEAYVMASVDNPHVCRLLGICLTSTVQLITQLMPFGCLLDYVREHKDNIGSQYLLNWCVQIAKGMNYLEDRRLVHRDLAARNVLVKTPQHVKITDFGLAKLLGAEEKEYHAEGGKVPIKWMALESILHRIYTHQSDVWSYGVTVWELMTFGSKPYDGIPASEISSILEKGERLPQPPICTIDVYMIMVKCWMIDADSRPKFRELIIEFSKMARDPQRYLVIQGDERMHLPSPTDSNFYRALMDEEDMDDVVDADEYLIPQQGFFSSPSTSRTPLLSSLSATSNNSTVACIDRNGLQSCPIKEDSFLQRYSSDPTGALTEDSIDDTFLPVPEYINQSVPKRPAGSVQNPVYHNQPLNPAPSRDPHYQDPHSTAVGNPEYLNTVQPTCVNSTFDSPAHWAQKGSHQISLDNPDYQQDFFPKEAKPNGIFKGSTAENAEYLRVAPQSSEFIGA

> <PDB ID(s) of Target Chain>
1IVO,1M14,1M17,1MOX,1XKK,1Z9I,2GS2,2GS6,2ITW,2ITX,2ITY,2J5E,2J5F,2J6M,2RF9,2RGP,3B2V,3BEL,3GOP,3POZ,3QWQ,3VJO,3W2O,3W2P,3W2Q,3W2R,3W2S,3W32,3W33,4G5J,4I23,4JQ7,4JQ8,4JR3,4JRV,4KRO,4LI5,4RJ4,4RJ5,4RJ6,4RJ7,4RJ8,4TKS,4UIP,4UV7,4WKQ,4WRG,4ZAU,5C8K,5C8M,5C8N,5CAL,5CAN,5CAO,5CAP,5CAQ,5CAS,5CAU,5CAV,5EDP,5EDQ,5EDR,5EM5,5EM6,5EM7,5EM8,5FED,5GNK,5HCX,5HCY,5HCZ,5HIB,5HIC,5UGB,5WB7,5WB8,5Y25,6S89,6S8A

> <UniProt (SwissProt) Recommended Name of Target Chain>
Epidermal growth factor receptor

> <UniProt (SwissProt) Entry Name of Target Chain>
EGFR_HUMAN

> <UniProt (SwissProt) Primary ID of Target Chain>
P00533

> <UniProt (SwissProt) Secondary ID(s) of Target Chain>
O00688,O00732,P06268,Q14225,Q68GS5,Q92795,Q9BZS2,Q9GZX1,Q9H2C9,Q9H3C9,Q9UMD7,Q9UMD8,Q9UMG5

> <UniProt (SwissProt) Alternative ID(s) of Target Chain>


> <UniProt (TrEMBL) Submitted Name of Target Chain>


> <UniProt (TrEMBL) Entry Name of Target Chain>


> <UniProt (TrEMBL) Primary ID of Target Chain>


> <UniProt (TrEMBL) Secondary ID(s) of Target Chain>


> <UniProt (TrEMBL) Alternative ID(s) of Target Chain>


> <training label>
7.48545

> <i_lp_mmshare_version>
54117

> <s_epik_input>
W0NIXSNDW0NIMl1bQ0gyXVtDSDJdW0NIMl1bQ0gyXU9jKFtjSF0xKWMoT1tDSDNdKVtjSF1jKGMxMiluW2NIXW5jMltOSF1jM1tjSF1jKENsKWMoRilbY0hdW2NIXTM=

> <s_epik_cmdline>
J2VwaWtfcHl0aG9uJywgJy1waHQnLCAnMC4xJywgJy1waCcsICc3LjQnLCAnLXRuJywgJzgnLCAnLW1hJywgJzIwMCcsICctaW1hZScsICc8aW5maWxlLm1hZT4nLCAnLW9tYWUnLCAnPG91dGZpbGUubWFlPic=

> <r_lp_tautomer_probability>
1

> <r_epik_Ionization_Penalty>
  0.0005

> <r_epik_Ionization_Penalty_Charging>
  0.0000

> <r_epik_Ionization_Penalty_Neutral>
  0.0005

> <r_epik_State_Penalty>
  0.0000

> <r_epik_Charging_Adjusted_Penalty>
0

> <i_epik_Tot_Q>
0

> <i_epik_Tot_abs_Q>
0

> <i_f3d_flags>
0

> <s_lp_Force_Field>
OPLS_2005

> <r_lp_Energy>
19.977789

> <b_lp_Chiralities_Consistent>
1

> <s_lp_Variant>
BindingDB_50308824_mol_1-1

> <s_i_glide_gridfile>
struct_1_site_1

> <i_i_glide_lignum>
195

> <i_i_glide_rotatable_bonds>
10

> <r_i_docking_score>
-7.20356129868569

> <r_i_glide_ligand_efficiency>
-0.24839866547192

> <r_i_glide_ligand_efficiency_sa>
-0.763159398550696

> <r_i_glide_ligand_efficiency_ln>
-1.64943287084539

> <r_i_glide_gscore>
-7.20356129868569

> <r_i_glide_lipo>
-3.23688957353213

> <r_i_glide_hbond>
-0.32

> <r_i_glide_metal>
0

> <r_i_glide_rewards>
-1.73118458568901

> <r_i_glide_evdw>
-44.8213119506836

> <r_i_glide_ecoul>
-4.30635786056519

> <r_i_glide_erotb>
1.03678169957906

> <r_i_glide_esite>
-0.0652495624246407

> <r_i_glide_emodel>
-53.7114051978934

> <r_i_glide_energy>
-49.1276698112488

> <r_i_glide_einternal>
5.47842597961426

> <i_i_glide_confnum>
52

> <i_i_glide_posenum>
337

> <r_i_glide_eff_state_penalty>
0

> <IC50 (nM)>
32.7

> <PMID>
19969465

> <r_glide_shape_similarity>
0.840988397598267

> <s_m_subgroup_title>
505 training

> <s_m_subgroupid>
pocket_pv

> <b_m_subgroup_collapsed>
0

$$$$
00190001.cdx
                    3D
 Schrodinger Suite 2021-2.
 49 53  0  0  1  0            999 V2000
   19.3725   -0.3224   52.7123 C   0  0  0  0  0  0
   19.8726   -1.1338   53.7753 C   0  0  0  0  0  0
   21.2389   -1.0699   54.1584 C   0  0  0  0  0  0
   22.0759   -0.1457   53.4778 C   0  0  0  0  0  0
   21.5665    0.6759   52.4421 C   0  0  0  0  0  0
   20.2202    0.5791   52.0461 C   0  0  0  0  0  0
   21.7615   -1.8595   55.1288 N   0  0  0  0  0  0
   23.0633   -1.7195   55.4166 C   0  0  0  0  0  0
   23.9271   -0.8885   54.8372 N   0  0  0  0  0  0
   23.4385   -0.0874   53.8672 C   0  0  0  0  0  0
   24.2921    0.8580   53.2755 N   0  0  0  0  0  0
   25.6882    0.9443   53.3398 C   0  0  0  0  0  0
   27.6981    2.3328   53.4326 C   0  0  0  0  0  0
   28.4995    1.1674   53.4704 C   0  0  0  0  0  0
   27.9066   -0.1089   53.3987 C   0  0  0  0  0  0
   26.5040   -0.2184   53.3319 C   0  0  0  0  0  0
   19.6652    1.3368   51.0298 O   0  0  0  0  0  0
   26.2916    2.2223   53.3654 C   0  0  0  0  0  0
   20.4933    1.6986   49.9260 C   0  0  0  0  0  0
   15.5655   -2.4141   52.4024 O   0  0  0  0  0  0
   16.7654   -2.1214   53.1301 C   0  0  0  0  0  0
   17.0141   -0.6016   53.0363 C   0  0  2  0  0  0
   15.7568   -0.0109   52.3931 C   0  0  1  0  0  0
   14.8672   -1.2129   52.0368 C   0  0  2  0  0  0
   15.0354    0.7377   53.3698 O   0  0  0  0  0  0
   13.6447    0.4685   53.2479 C   0  0  0  0  0  0
   13.5969   -1.0208   52.8795 C   0  0  1  0  0  0
   18.1032   -0.3486   52.1826 O   0  0  0  0  0  0
   29.8444    1.2523   53.5734 F   0  0  0  0  0  0
   12.4832   -1.3437   52.2062 F   0  0  0  0  0  0
   19.2237   -1.8276   54.2894 H   0  0  0  0  0  0
   22.2072    1.3742   51.9236 H   0  0  0  0  0  0
   23.4650   -2.3719   56.1781 H   0  0  0  0  0  0
   23.8312    1.6359   52.8294 H   0  0  0  0  0  0
   28.1626    3.3050   53.4605 H   0  0  0  0  0  0
   28.5241   -0.9935   53.4039 H   0  0  0  0  0  0
   26.0605   -1.2019   53.2803 H   0  0  0  0  0  0
   25.6924    3.1249   53.3506 H   0  0  0  0  0  0
   19.8623    2.0199   49.0984 H   0  0  0  0  0  0
   21.1560    2.5274   50.1849 H   0  0  0  0  0  0
   21.1026    0.8611   49.5793 H   0  0  0  0  0  0
   16.6843   -2.4385   54.1641 H   0  0  0  0  0  0
   17.5913   -2.6867   52.7015 H   0  0  0  0  0  0
   17.1939   -0.1185   53.9957 H   0  0  0  0  0  0
   15.9765    0.6092   51.5174 H   0  0  0  0  0  0
   14.6410   -1.2241   50.9722 H   0  0  0  0  0  0
   13.1047    0.6955   54.1660 H   0  0  0  0  0  0
   13.2342    1.0800   52.4412 H   0  0  0  0  0  0
   13.6442   -1.6396   53.7710 H   0  0  0  0  0  0
  1 28  1  0  0  0
  1  2  2  0  0  0
  1  6  1  0  0  0
  2  3  1  0  0  0
  2 31  1  0  0  0
  3  4  2  0  0  0
  3  7  1  0  0  0
  4  5  1  0  0  0
  4 10  1  0  0  0
  5  6  2  0  0  0
  5 32  1  0  0  0
  6 17  1  0  0  0
  7  8  2  0  0  0
  8  9  1  0  0  0
  8 33  1  0  0  0
  9 10  2  0  0  0
 10 11  1  0  0  0
 11 12  1  0  0  0
 11 34  1  0  0  0
 12 18  2  0  0  0
 12 16  1  0  0  0
 13 18  1  0  0  0
 13 14  2  0  0  0
 13 35  1  0  0  0
 14 15  1  0  0  0
 14 29  1  0  0  0
 15 16  2  0  0  0
 15 36  1  0  0  0
 16 37  1  0  0  0
 17 19  1  0  0  0
 18 38  1  0  0  0
 19 39  1  0  0  0
 19 40  1  0  0  0
 19 41  1  0  0  0
 20 21  1  0  0  0
 20 24  1  0  0  0
 21 22  1  0  0  0
 21 42  1  0  0  0
 21 43  1  0  0  0
 22 23  1  0  0  0
 22 28  1  0  0  0
 22 44  1  0  0  0
 23 24  1  0  0  0
 23 25  1  0  0  0
 23 45  1  0  0  0
 24 27  1  0  0  0
 24 46  1  0  0  0
 25 26  1  0  0  0
 26 27  1  0  0  0
 26 47  1  0  0  0
 26 48  1  0  0  0
 27 30  1  0  0  0
 27 49  1  0  0  0
M  END
> <s_m_entry_id>
355

> <s_m_entry_name>
pocket_pv.166

> <s_m_Source_Path>
/home/bortolaa/Project/GT/mario-master/docking/set505protein_struct_1_site_1_set505ligs_train

> <s_m_Source_File>
pocket_pv.maegz

> <i_m_Source_File_Index>
166

> <From>
www.bindingDB.org

> <BindingDB Reactant_set_id>
694871

> <Ligand InChI>
InChI=1S/C21H19F2N3O4/c1-27-16-6-13-15(24-10-25-21(13)26-12-4-2-11(22)3-5-12)7-17(16)30-18-9-29-19-14(23)8-28-20(18)19/h2-7,10,14,18-20H,8-9H2,1H3,(H,24,25,26)/t14-,18-,19+,20+/m1/s1

> <Ligand InChI Key>
FSNXDZZUWFZSPA-FCDRMGDPSA-N

> <BindingDB MonomerID>
351395

> <BindingDB Ligand Name>
1,4:3,6-dianhydro-2-deoxy-2-fluoro-5-O-[4- [(4-fluorophenyl)amino]-6- (methyloxy)quinazolin-7-yl]-D-iditol::US9796704, Entry 115

> <Target Name Assigned by Curator or DataSource>
Epidermal growth factor receptor (EGFR)

> <Target Source Organism According to Curator or DataSource>
Homo sapiens

> <Ki (nM)>


> <IC50 (nM)>
525

> <Kd (nM)>


> <EC50 (nM)>


> <kon (M-1-s-1)>


> <koff (s-1)>


> <pH>


> <Temp C>


> <Curation/DataSource>
US Patent

> <Article DOI>
10.1016/j.bmcl.2006.05.056

> <PMID>


> <PubChem AID>


> <Patent Number>
US9796704

> <Authors>
Rice, KD; Anand, NK; Bussenius, J; Costanzo, S; Kennedy, AR; Peto, CJ; Tsang, TH; Blazey, CM

> <Institution>
SYMPHONY EVOLUTION, INC.

> <Link to Ligand in BindingDB>
http://www.bindingdb.org/bind/chemsearch/marvin/MolStructure.jsp?monomerid=351395

> <Link to Ligand-Target Pair in BindingDB>
http://www.bindingdb.org/jsp/dbsearch/PrimarySearch_ki.jsp?energyterm=kJ/mole&tag=r21&monomerid=351395&enzyme=Epidermal+growth+factor+receptor+%28EGFR%29&column=ki&startPg=0&Increment=50&submit=Search

> <Ligand HET ID in PDB>


> <PDB ID(s) for Ligand-Target Complex>


> <PubChem CID>
10093273

> <PubChem SID>
386053119

> <ChEBI ID of Ligand>


> <ChEMBL ID of Ligand>


> <DrugBank ID of Ligand>


> <IUPHAR_GRAC ID of Ligand>


> <KEGG ID of Ligand>


> <ZINC ID of Ligand>


> <Number of Protein Chains in Target (>
1

> <BindingDB Target Chain Sequence>
MRPSGTAGAALLALLAALCPASRALEEKKVCQGTSNKLTQLGTFEDHFLSLQRMFNNCEVVLGNLEITYVQRNYDLSFLKTIQEVAGYVLIALNTVERIPLENLQIIRGNMYYENSYALAVLSNYDANKTGLKELPMRNLQEILHGAVRFSNNPALCNVESIQWRDIVSSDFLSNMSMDFQNHLGSCQKCDPSCPNGSCWGAGEENCQKLTKIICAQQCSGRCRGKSPSDCCHNQCAAGCTGPRESDCLVCRKFRDEATCKDTCPPLMLYNPTTYQMDVNPEGKYSFGATCVKKCPRNYVVTDHGSCVRACGADSYEMEEDGVRKCKKCEGPCRKVCNGIGIGEFKDSLSINATNIKHFKNCTSISGDLHILPVAFRGDSFTHTPPLDPQELDILKTVKEITGFLLIQAWPENRTDLHAFENLEIIRGRTKQHGQFSLAVVSLNITSLGLRSLKEISDGDVIISGNKNLCYANTINWKKLFGTSGQKTKIISNRGENSCKATGQVCHALCSPEGCWGPEPRDCVSCRNVSRGRECVDKCNLLEGEPREFVENSECIQCHPECLPQAMNITCTGRGPDNCIQCAHYIDGPHCVKTCPAGVMGENNTLVWKYADAGHVCHLCHPNCTYGCTGPGLEGCPTNGPKIPSIATGMVGALLLLLVVALGIGLFMRRRHIVRKRTLRRLLQERELVEPLTPSGEAPNQALLRILKETEFKKIKVLGSGAFGTVYKGLWIPEGEKVKIPVAIKELREATSPKANKEILDEAYVMASVDNPHVCRLLGICLTSTVQLITQLMPFGCLLDYVREHKDNIGSQYLLNWCVQIAKGMNYLEDRRLVHRDLAARNVLVKTPQHVKITDFGLAKLLGAEEKEYHAEGGKVPIKWMALESILHRIYTHQSDVWSYGVTVWELMTFGSKPYDGIPASEISSILEKGERLPQPPICTIDVYMIMVKCWMIDADSRPKFRELIIEFSKMARDPQRYLVIQGDERMHLPSPTDSNFYRALMDEEDMDDVVDADEYLIPQQGFFSSPSTSRTPLLSSLSATSNNSTVACIDRNGLQSCPIKEDSFLQRYSSDPTGALTEDSIDDTFLPVPEYINQSVPKRPAGSVQNPVYHNQPLNPAPSRDPHYQDPHSTAVGNPEYLNTVQPTCVNSTFDSPAHWAQKGSHQISLDNPDYQQDFFPKEAKPNGIFKGSTAENAEYLRVAPQSSEFIGA

> <PDB ID(s) of Target Chain>
1IVO,1M14,1M17,1MOX,1XKK,1Z9I,2GS2,2GS6,2ITW,2ITX,2ITY,2J5E,2J5F,2J6M,2RF9,2RGP,3B2V,3BEL,3GOP,3POZ,3QWQ,3VJO,3W2O,3W2P,3W2Q,3W2R,3W2S,3W32,3W33,4G5J,4I23,4JQ7,4JQ8,4JR3,4JRV,4KRO,4LI5,4RJ4,4RJ5,4RJ6,4RJ7,4RJ8,4TKS,4UIP,4UV7,4WKQ,4WRG,4ZAU,5C8K,5C8M,5C8N,5CAL,5CAN,5CAO,5CAP,5CAQ,5CAS,5CAU,5CAV,5EDP,5EDQ,5EDR,5EM5,5EM6,5EM7,5EM8,5FED,5GNK,5HCX,5HCY,5HCZ,5HIB,5HIC,5UGB,5WB7,5WB8,5Y25,6S89,6S8A

> <UniProt (SwissProt) Recommended Name of Target Chain>
Epidermal growth factor receptor

> <UniProt (SwissProt) Entry Name of Target Chain>
EGFR_HUMAN

> <UniProt (SwissProt) Primary ID of Target Chain>
P00533

> <UniProt (SwissProt) Secondary ID(s) of Target Chain>
O00688,O00732,P06268,Q14225,Q68GS5,Q92795,Q9BZS2,Q9GZX1,Q9H2C9,Q9H3C9,Q9UMD7,Q9UMD8,Q9UMG5

> <UniProt (SwissProt) Alternative ID(s) of Target Chain>


> <UniProt (TrEMBL) Submitted Name of Target Chain>


> <UniProt (TrEMBL) Entry Name of Target Chain>


> <UniProt (TrEMBL) Primary ID of Target Chain>


> <UniProt (TrEMBL) Secondary ID(s) of Target Chain>


> <UniProt (TrEMBL) Alternative ID(s) of Target Chain>


> <training label>
6.27984

> <i_lp_mmshare_version>
54117

> <s_epik_input>
TzFbQ0gyXVtDQEBIXShGKVtDQEBIXShbQ0BASF0xMilPW0NIMl1bQ0BIXTJPYyhbY0hdMyljKE9bQ0gzXSlbY0hdYyhjMzQpYyhuW2NIXW40KVtOSF1jNVtjSF1bY0hdYyhGKVtjSF1bY0hdNQ==

> <s_epik_cmdline>
J2VwaWtfcHl0aG9uJywgJy1waHQnLCAnMC4xJywgJy1waCcsICc3LjQnLCAnLXRuJywgJzgnLCAnLW1hJywgJzIwMCcsICctaW1hZScsICc8aW5maWxlLm1hZT4nLCAnLW9tYWUnLCAnPG91dGZpbGUubWFlPic=

> <r_lp_tautomer_probability>
1

> <r_epik_Ionization_Penalty>
  0.0011

> <r_epik_Ionization_Penalty_Charging>
  0.0000

> <r_epik_Ionization_Penalty_Neutral>
  0.0011

> <r_epik_State_Penalty>
  0.0000

> <r_epik_Charging_Adjusted_Penalty>
0

> <i_epik_Tot_Q>
0

> <i_epik_Tot_abs_Q>
0

> <i_f3d_flags>
0

> <s_lp_Force_Field>
OPLS_2005

> <r_lp_Energy>
41.5495

> <b_lp_Chiralities_Consistent>
1

> <s_lp_Variant>
00190001.cdx-1

> <s_i_glide_gridfile>
struct_1_site_1

> <i_i_glide_lignum>
101

> <i_i_glide_rotatable_bonds>
5

> <r_i_docking_score>
-7.20167606617383

> <r_i_glide_ligand_efficiency>
-0.240055868872461

> <r_i_glide_ligand_efficiency_sa>
-0.745909398159847

> <r_i_glide_ligand_efficiency_ln>
-1.63629927078027

> <r_i_glide_gscore>
-7.20167606617383

> <r_i_glide_lipo>
-2.830460766013

> <r_i_glide_hbond>
-0.32

> <r_i_glide_metal>
0

> <r_i_glide_rewards>
-1.7407452617775

> <r_i_glide_evdw>
-39.0112648010254

> <r_i_glide_ecoul>
-5.02698707580566

> <r_i_glide_erotb>
0.457755874133398

> <r_i_glide_esite>
-0.0636146110946144

> <r_i_glide_emodel>
-45.5920785511738

> <r_i_glide_energy>
-44.0382518768311

> <r_i_glide_einternal>
3.57375764846802

> <i_i_glide_confnum>
101

> <i_i_glide_posenum>
216

> <r_i_glide_eff_state_penalty>
0

> <r_glide_shape_similarity>
0.83395653963089

> <s_m_subgroup_title>
505 training

> <s_m_subgroupid>
pocket_pv

> <b_m_subgroup_collapsed>
0

$$$$
BindingDB_50308828_mol_1
                    3D
 Schrodinger Suite 2021-2.
 44 46  0  0  1  0            999 V2000
   20.1830    0.5347   52.1388 C   0  0  0  0  0  0
   19.3520   -0.3680   52.8208 C   0  0  0  0  0  0
   19.9069   -1.1937   53.8297 C   0  0  0  0  0  0
   21.5278    0.6495   52.5154 C   0  0  0  0  0  0
   22.0768   -0.1720   53.5080 C   0  0  0  0  0  0
   21.2690   -1.1111   54.1786 C   0  0  0  0  0  0
   21.7995   -1.8931   55.1368 N   0  0  0  0  0  0
   23.0915   -1.7370   55.4091 C   0  0  0  0  0  0
   23.9372   -0.8998   54.8255 N   0  0  0  0  0  0
   23.4382   -0.0997   53.8701 C   0  0  0  0  0  0
   24.2875    0.8472   53.2792 N   0  0  0  0  0  0
   25.6798    0.9467   53.3428 C   0  0  0  0  0  0
   26.5028   -0.1942   53.3314 C   0  0  0  0  0  0
   27.8942   -0.0655   53.3855 C   0  0  0  0  0  0
   28.4700    1.2044   53.4575 C   0  0  0  0  0  0
   27.6656    2.3502   53.4290 C   0  0  0  0  0  0
   26.2707    2.2221   53.3676 C   0  0  0  0  0  0
   28.8863   -1.4681   53.3684 Cl  0  0  0  0  0  0
   19.6618    1.3271   51.1458 O   0  0  0  0  0  0
   20.4364    1.4334   49.9535 C   0  0  0  0  0  0
   18.0338   -0.3742   52.4320 O   0  0  0  0  0  0
   17.1134   -1.1291   53.1883 C   0  0  0  0  0  0
   19.9265    2.5850   49.1049 C   0  0  0  0  0  0
   18.4976    2.3393   48.6220 C   0  0  0  0  0  0
   17.5666    3.3676   49.0874 C   0  0  0  0  0  0
   16.8560    4.2819   49.4720 C   0  0  0  0  0  0
   29.8038    1.3131   53.5714 F   0  0  0  0  0  0
   19.2934   -1.8995   54.3671 H   0  0  0  0  0  0
   22.1512    1.3886   52.0422 H   0  0  0  0  0  0
   23.4994   -2.3755   56.1786 H   0  0  0  0  0  0
   23.8209    1.6201   52.8358 H   0  0  0  0  0  0
   26.0701   -1.1822   53.2759 H   0  0  0  0  0  0
   28.1151    3.3320   53.4732 H   0  0  0  0  0  0
   25.6619    3.1158   53.3575 H   0  0  0  0  0  0
   20.3741    0.4989   49.3951 H   0  0  0  0  0  0
   21.4946    1.6147   50.1219 H   0  0  0  0  0  0
   16.1035   -0.9415   52.8237 H   0  0  0  0  0  0
   17.3085   -2.1975   53.0894 H   0  0  0  0  0  0
   17.1380   -0.8608   54.2448 H   0  0  0  0  0  0
   20.5761    2.6925   48.2361 H   0  0  0  0  0  0
   20.0282    3.5172   49.6644 H   0  0  0  0  0  0
   18.1148    1.3741   48.9601 H   0  0  0  0  0  0
   18.4605    2.3359   47.5314 H   0  0  0  0  0  0
   16.2853    5.1234   49.8072 H   0  0  0  0  0  0
  1  2  2  0  0  0
  1  4  1  0  0  0
  1 19  1  0  0  0
  2  3  1  0  0  0
  2 21  1  0  0  0
  3  6  2  0  0  0
  3 28  1  0  0  0
  4  5  2  0  0  0
  4 29  1  0  0  0
  5  6  1  0  0  0
  5 10  1  0  0  0
  6  7  1  0  0  0
  7  8  2  0  0  0
  8  9  1  0  0  0
  8 30  1  0  0  0
  9 10  2  0  0  0
 10 11  1  0  0  0
 11 12  1  0  0  0
 11 31  1  0  0  0
 12 13  2  0  0  0
 12 17  1  0  0  0
 13 14  1  0  0  0
 13 32  1  0  0  0
 14 15  2  0  0  0
 14 18  1  0  0  0
 15 16  1  0  0  0
 15 27  1  0  0  0
 16 17  2  0  0  0
 16 33  1  0  0  0
 17 34  1  0  0  0
 19 20  1  0  0  0
 20 23  1  0  0  0
 20 35  1  0  0  0
 20 36  1  0  0  0
 21 22  1  0  0  0
 22 37  1  0  0  0
 22 38  1  0  0  0
 22 39  1  0  0  0
 23 24  1  0  0  0
 23 40  1  0  0  0
 23 41  1  0  0  0
 24 25  1  0  0  0
 24 42  1  0  0  0
 24 43  1  0  0  0
 25 26  3  0  0  0
 26 44  1  0  0  0
M  END
> <s_m_entry_id>
356

> <s_m_entry_name>
pocket_pv.167

> <s_m_Source_Path>
/home/bortolaa/Project/GT/mario-master/docking/set505protein_struct_1_site_1_set505ligs_train

> <s_m_Source_File>
pocket_pv.maegz

> <i_m_Source_File_Index>
167

> <From>
www.bindingDB.org

> <BindingDB Reactant_set_id>
50554731

> <Ligand InChI>
InChI=1S/C20H17ClFN3O2/c1-3-4-5-8-27-19-10-14-17(11-18(19)26-2)23-12-24-20(14)25-13-6-7-16(22)15(21)9-13/h1,6-7,9-12H,4-5,8H2,2H3,(H,23,24,25)

> <Ligand InChI Key>
NUKACQQCRSOUHL-UHFFFAOYSA-N

> <BindingDB MonomerID>
50308828

> <BindingDB Ligand Name>
4-(3'-Chloro-4'-fluoroanilino)-7-methoxy-6-(pent-4-ynyloxy)quinazoline::CHEMBL592216

> <Target Name Assigned by Curator or DataSource>
Epidermal growth factor receptor

> <Target Source Organism According to Curator or DataSource>
Homo sapiens

> <Ki (nM)>


> <Kd (nM)>


> <EC50 (nM)>


> <kon (M-1-s-1)>


> <koff (s-1)>


> <pH>


> <Temp C>


> <Curation/DataSource>
ChEMBL

> <Article DOI>
10.1016/j.bmc.2009.11.035

> <PubChem AID>


> <Patent Number>


> <Authors>
Ban, HS; Tanaka, Y; Nabeyama, W; Hatori, M; Nakamura, H

> <Institution>
Gakushuin University

> <Link to Ligand in BindingDB>
http://www.bindingdb.org/bind/chemsearch/marvin/MolStructure.jsp?monomerid=50308828

> <Link to Ligand-Target Pair in BindingDB>
http://www.bindingdb.org/jsp/dbsearch/PrimarySearch_ki.jsp?energyterm=kJ/mole&tag=r21&monomerid=50308828&enzyme=Epidermal+growth+factor+receptor&column=ki&startPg=0&Increment=50&submit=Search

> <Ligand HET ID in PDB>


> <PDB ID(s) for Ligand-Target Complex>


> <PubChem CID>
46229767

> <PubChem SID>
104163189

> <ChEBI ID of Ligand>


> <ChEMBL ID of Ligand>
CHEMBL592216

> <DrugBank ID of Ligand>


> <IUPHAR_GRAC ID of Ligand>


> <KEGG ID of Ligand>


> <ZINC ID of Ligand>
ZINC45337773

> <Number of Protein Chains in Target (>
1

> <BindingDB Target Chain Sequence>
MRPSGTAGAALLALLAALCPASRALEEKKVCQGTSNKLTQLGTFEDHFLSLQRMFNNCEVVLGNLEITYVQRNYDLSFLKTIQEVAGYVLIALNTVERIPLENLQIIRGNMYYENSYALAVLSNYDANKTGLKELPMRNLQEILHGAVRFSNNPALCNVESIQWRDIVSSDFLSNMSMDFQNHLGSCQKCDPSCPNGSCWGAGEENCQKLTKIICAQQCSGRCRGKSPSDCCHNQCAAGCTGPRESDCLVCRKFRDEATCKDTCPPLMLYNPTTYQMDVNPEGKYSFGATCVKKCPRNYVVTDHGSCVRACGADSYEMEEDGVRKCKKCEGPCRKVCNGIGIGEFKDSLSINATNIKHFKNCTSISGDLHILPVAFRGDSFTHTPPLDPQELDILKTVKEITGFLLIQAWPENRTDLHAFENLEIIRGRTKQHGQFSLAVVSLNITSLGLRSLKEISDGDVIISGNKNLCYANTINWKKLFGTSGQKTKIISNRGENSCKATGQVCHALCSPEGCWGPEPRDCVSCRNVSRGRECVDKCNLLEGEPREFVENSECIQCHPECLPQAMNITCTGRGPDNCIQCAHYIDGPHCVKTCPAGVMGENNTLVWKYADAGHVCHLCHPNCTYGCTGPGLEGCPTNGPKIPSIATGMVGALLLLLVVALGIGLFMRRRHIVRKRTLRRLLQERELVEPLTPSGEAPNQALLRILKETEFKKIKVLGSGAFGTVYKGLWIPEGEKVKIPVAIKELREATSPKANKEILDEAYVMASVDNPHVCRLLGICLTSTVQLITQLMPFGCLLDYVREHKDNIGSQYLLNWCVQIAKGMNYLEDRRLVHRDLAARNVLVKTPQHVKITDFGLAKLLGAEEKEYHAEGGKVPIKWMALESILHRIYTHQSDVWSYGVTVWELMTFGSKPYDGIPASEISSILEKGERLPQPPICTIDVYMIMVKCWMIDADSRPKFRELIIEFSKMARDPQRYLVIQGDERMHLPSPTDSNFYRALMDEEDMDDVVDADEYLIPQQGFFSSPSTSRTPLLSSLSATSNNSTVACIDRNGLQSCPIKEDSFLQRYSSDPTGALTEDSIDDTFLPVPEYINQSVPKRPAGSVQNPVYHNQPLNPAPSRDPHYQDPHSTAVGNPEYLNTVQPTCVNSTFDSPAHWAQKGSHQISLDNPDYQQDFFPKEAKPNGIFKGSTAENAEYLRVAPQSSEFIGA

> <PDB ID(s) of Target Chain>
1IVO,1M14,1M17,1MOX,1XKK,1Z9I,2GS2,2GS6,2ITW,2ITX,2ITY,2J5E,2J5F,2J6M,2RF9,2RGP,3B2V,3BEL,3GOP,3POZ,3QWQ,3VJO,3W2O,3W2P,3W2Q,3W2R,3W2S,3W32,3W33,4G5J,4I23,4JQ7,4JQ8,4JR3,4JRV,4KRO,4LI5,4RJ4,4RJ5,4RJ6,4RJ7,4RJ8,4TKS,4UIP,4UV7,4WKQ,4WRG,4ZAU,5C8K,5C8M,5C8N,5CAL,5CAN,5CAO,5CAP,5CAQ,5CAS,5CAU,5CAV,5EDP,5EDQ,5EDR,5EM5,5EM6,5EM7,5EM8,5FED,5GNK,5HCX,5HCY,5HCZ,5HIB,5HIC,5UGB,5WB7,5WB8,5Y25,6S89,6S8A

> <UniProt (SwissProt) Recommended Name of Target Chain>
Epidermal growth factor receptor

> <UniProt (SwissProt) Entry Name of Target Chain>
EGFR_HUMAN

> <UniProt (SwissProt) Primary ID of Target Chain>
P00533

> <UniProt (SwissProt) Secondary ID(s) of Target Chain>
O00688,O00732,P06268,Q14225,Q68GS5,Q92795,Q9BZS2,Q9GZX1,Q9H2C9,Q9H3C9,Q9UMD7,Q9UMD8,Q9UMG5

> <UniProt (SwissProt) Alternative ID(s) of Target Chain>


> <UniProt (TrEMBL) Submitted Name of Target Chain>


> <UniProt (TrEMBL) Entry Name of Target Chain>


> <UniProt (TrEMBL) Primary ID of Target Chain>


> <UniProt (TrEMBL) Secondary ID(s) of Target Chain>


> <UniProt (TrEMBL) Alternative ID(s) of Target Chain>


> <training label>
8.59688

> <i_lp_mmshare_version>
54117

> <s_epik_input>
W0NIXSNDW0NIMl1bQ0gyXVtDSDJdT2MoW2NIXTEpYyhPW0NIM10pW2NIXWMoYzEyKW5bY0hdbmMyW05IXWMzW2NIXWMoQ2wpYyhGKVtjSF1bY0hdMw==

> <s_epik_cmdline>
J2VwaWtfcHl0aG9uJywgJy1waHQnLCAnMC4xJywgJy1waCcsICc3LjQnLCAnLXRuJywgJzgnLCAnLW1hJywgJzIwMCcsICctaW1hZScsICc8aW5maWxlLm1hZT4nLCAnLW9tYWUnLCAnPG91dGZpbGUubWFlPic=

> <r_lp_tautomer_probability>
1

> <r_epik_Ionization_Penalty>
  0.0005

> <r_epik_Ionization_Penalty_Charging>
  0.0000

> <r_epik_Ionization_Penalty_Neutral>
  0.0005

> <r_epik_State_Penalty>
  0.0000

> <r_epik_Charging_Adjusted_Penalty>
0

> <i_epik_Tot_Q>
0

> <i_epik_Tot_abs_Q>
0

> <i_f3d_flags>
0

> <s_lp_Force_Field>
OPLS_2005

> <r_lp_Energy>
18.959731

> <b_lp_Chiralities_Consistent>
1

> <s_lp_Variant>
BindingDB_50308828_mol_1-1

> <s_i_glide_gridfile>
struct_1_site_1

> <i_i_glide_lignum>
268

> <i_i_glide_rotatable_bonds>
8

> <r_i_docking_score>
-7.19623886540183

> <r_i_glide_ligand_efficiency>
-0.266527365385253

> <r_i_glide_ligand_efficiency_sa>
-0.799582095277329

> <r_i_glide_ligand_efficiency_ln>
-1.67516576859569

> <r_i_glide_gscore>
-7.19623886540183

> <r_i_glide_lipo>
-2.9879133105978

> <r_i_glide_hbond>
-0.32

> <r_i_glide_metal>
0

> <r_i_glide_rewards>
-1.93787176433014

> <r_i_glide_evdw>
-41.7507057189941

> <r_i_glide_ecoul>
-4.76180267333984

> <r_i_glide_erotb>
0.914968308816283

> <r_i_glide_esite>
-0.0636164123394884

> <r_i_glide_emodel>
-56.0202914318231

> <r_i_glide_energy>
-46.512508392334

> <r_i_glide_einternal>
4.07526683807373

> <i_i_glide_confnum>
112

> <i_i_glide_posenum>
21

> <r_i_glide_eff_state_penalty>
0

> <IC50 (nM)>
2.53

> <PMID>
19969465

> <r_glide_shape_similarity>
0.890572726726532

> <s_m_subgroup_title>
505 training

> <s_m_subgroupid>
pocket_pv

> <b_m_subgroup_collapsed>
0

$$$$
6-alkoxy-4-anilinoquinazoline
                    3D
 Schrodinger Suite 2021-2.
 50 53  0  0  1  0            999 V2000
   28.0327   -1.7369   52.9759 C   0  0  0  0  0  0
   29.2831   -2.2482   53.3744 C   0  0  0  0  0  0
   30.2890   -1.3447   53.7745 C   0  0  0  0  0  0
   30.0607    0.0387   53.7751 C   0  0  0  0  0  0
   28.8227    0.5713   53.3801 C   0  0  0  0  0  0
   27.8061   -0.3432   52.9725 C   0  0  0  0  0  0
   28.7123    2.1060   53.4512 C   0  0  0  0  0  0
   27.8571    2.7301   52.5019 O   0  0  0  0  0  0
   26.5158    2.4741   52.6232 C   0  0  0  0  0  0
   25.9783    1.8588   53.7700 C   0  0  0  0  0  0
   25.6719    2.7204   51.5137 C   0  0  0  0  0  0
   24.3376    2.2411   51.5106 C   0  0  0  0  0  0
   23.8587    1.4602   52.5916 C   0  0  0  0  0  0
   24.7198    1.2776   53.6994 C   0  0  0  0  0  0
   22.5504    0.9311   52.5451 N   0  0  0  0  0  0
   22.0017   -0.0872   53.3399 C   0  0  0  0  0  0
   22.3465   -1.6698   54.9707 C   0  0  0  0  0  0
   20.6248   -0.4145   53.2672 C   0  0  0  0  0  0
   20.2282   -1.4914   54.1042 C   0  0  0  0  0  0
   19.6702    0.2352   52.4312 C   0  0  0  0  0  0
   17.9852   -1.3831   53.1445 C   0  0  0  0  0  0
   18.9216   -1.9950   53.9905 C   0  0  0  0  0  0
   22.8399   -0.7733   54.1482 N   0  0  0  0  0  0
   21.0864   -2.0652   54.9748 N   0  0  0  0  0  0
   18.3241   -0.2248   52.3983 C   0  0  0  0  0  0
   17.3821    0.4854   51.6715 O   0  0  0  0  0  0
   16.0344   -0.0157   51.5933 C   0  0  0  0  0  0
   15.2465    0.1120   52.8966 C   0  0  0  0  0  0
   13.9258    0.3374   52.9843 C   0  0  0  0  0  0
   27.2533   -2.4136   52.6567 H   0  0  0  0  0  0
   29.4617   -3.3139   53.3850 H   0  0  0  0  0  0
   31.2515   -1.6661   54.1329 H   0  0  0  0  0  0
   30.8571    0.7023   54.0796 H   0  0  0  0  0  0
   26.8562   -0.0366   52.5783 H   0  0  0  0  0  0
   29.6977    2.5202   53.2506 H   0  0  0  0  0  0
   28.5028    2.4340   54.4686 H   0  0  0  0  0  0
   26.5525    1.6666   54.6591 H   0  0  0  0  0  0
   26.0624    3.2363   50.6490 H   0  0  0  0  0  0
   23.7116    2.4253   50.6503 H   0  0  0  0  0  0
   24.4578    0.7335   54.5747 H   0  0  0  0  0  0
   21.9293    1.3040   51.8374 H   0  0  0  0  0  0
   23.0306   -2.1659   55.6434 H   0  0  0  0  0  0
   19.9454    1.0897   51.8313 H   0  0  0  0  0  0
   16.9954   -1.8109   53.1331 H   0  0  0  0  0  0
   18.6242   -2.8364   54.5968 H   0  0  0  0  0  0
   16.0351   -1.0538   51.2586 H   0  0  0  0  0  0
   15.5125    0.5437   50.8164 H   0  0  0  0  0  0
   15.7998   -0.0053   53.8151 H   0  0  0  0  0  0
   13.3147    0.4553   52.1011 H   0  0  0  0  0  0
   13.4386    0.4082   53.9461 H   0  0  0  0  0  0
  1  2  2  0  0  0
  1  6  1  0  0  0
  1 30  1  0  0  0
  2  3  1  0  0  0
  2 31  1  0  0  0
  3  4  2  0  0  0
  3 32  1  0  0  0
  4  5  1  0  0  0
  4 33  1  0  0  0
  5  6  2  0  0  0
  5  7  1  0  0  0
  6 34  1  0  0  0
  7  8  1  0  0  0
  7 35  1  0  0  0
  7 36  1  0  0  0
  8  9  1  0  0  0
  9 10  2  0  0  0
  9 11  1  0  0  0
 10 14  1  0  0  0
 10 37  1  0  0  0
 11 12  2  0  0  0
 11 38  1  0  0  0
 12 13  1  0  0  0
 12 39  1  0  0  0
 13 14  2  0  0  0
 13 15  1  0  0  0
 14 40  1  0  0  0
 15 16  1  0  0  0
 15 41  1  0  0  0
 16 18  2  0  0  0
 16 23  1  0  0  0
 17 23  2  0  0  0
 17 24  1  0  0  0
 17 42  1  0  0  0
 18 19  1  0  0  0
 18 20  1  0  0  0
 19 22  1  0  0  0
 19 24  2  0  0  0
 20 25  2  0  0  0
 20 43  1  0  0  0
 21 22  2  0  0  0
 21 25  1  0  0  0
 21 44  1  0  0  0
 22 45  1  0  0  0
 25 26  1  0  0  0
 26 27  1  0  0  0
 27 28  1  0  0  0
 27 46  1  0  0  0
 27 47  1  0  0  0
 28 29  2  0  0  0
 28 48  1  0  0  0
 29 49  1  0  0  0
 29 50  1  0  0  0
M  END
> <s_m_entry_id>
357

> <s_m_entry_name>
pocket_pv.168

> <s_m_Source_Path>
/home/bortolaa/Project/GT/mario-master/docking/set505protein_struct_1_site_1_set505ligs_train

> <s_m_Source_File>
pocket_pv.maegz

> <i_m_Source_File_Index>
168

> <From>
www.bindingDB.org

> <BindingDB Reactant_set_id>
8660

> <Ligand InChI>
InChI=1S/C24H21N3O2/c1-2-14-28-21-12-13-23-22(15-21)24(26-17-25-23)27-19-8-10-20(11-9-19)29-16-18-6-4-3-5-7-18/h2-13,15,17H,1,14,16H2,(H,25,26,27)

> <Ligand InChI Key>
PNZSTSKDYDRMIY-UHFFFAOYSA-N

> <BindingDB MonomerID>
5452

> <BindingDB Ligand Name>
6-alkoxy-4-anilinoquinazoline 10a::N-[4-(benzyloxy)phenyl]-6-(prop-2-en-1-yloxy)quinazolin-4-amine

> <Target Name Assigned by Curator or DataSource>
Epidermal growth factor receptor

> <Target Source Organism According to Curator or DataSource>
Homo sapiens

> <Ki (nM)>


> <Kd (nM)>


> <EC50 (nM)>


> <kon (M-1-s-1)>


> <koff (s-1)>


> <Curation/DataSource>
Curated from the literature by BindingDB

> <Article DOI>
10.1021/jm061320h

> <PubChem AID>


> <Patent Number>


> <Authors>
Gaul, MD; Guo, Y; Affleck, K; Cockerill, GS; Gilmer, TM; Griffin, RJ; Guntrip, S; Keith, BR; Knight, WB; Mullin, RJ; Murray, DM; Rusnak, DW; Smith, K; Tadepalli, S; Wood, ER; Lackey, K

> <Institution>
GlaxoSmithKline

> <Link to Ligand in BindingDB>
http://www.bindingdb.org/bind/chemsearch/marvin/MolStructure.jsp?monomerid=5452

> <Link to Ligand-Target Pair in BindingDB>
http://www.bindingdb.org/jsp/dbsearch/PrimarySearch_ki.jsp?energyterm=kJ/mole&tag=r21&monomerid=5452&enzyme=Epidermal+growth+factor+receptor&column=ki&startPg=0&Increment=50&submit=Search

> <Ligand HET ID in PDB>


> <PDB ID(s) for Ligand-Target Complex>


> <PubChem CID>
5329485

> <PubChem SID>
8035071

> <ChEBI ID of Ligand>


> <ChEMBL ID of Ligand>


> <DrugBank ID of Ligand>


> <IUPHAR_GRAC ID of Ligand>


> <KEGG ID of Ligand>


> <ZINC ID of Ligand>
ZINC13588398

> <Number of Protein Chains in Target (>
1

> <BindingDB Target Chain Sequence>
MRPSGTAGAALLALLAALCPASRALEEKKVCQGTSNKLTQLGTFEDHFLSLQRMFNNCEVVLGNLEITYVQRNYDLSFLKTIQEVAGYVLIALNTVERIPLENLQIIRGNMYYENSYALAVLSNYDANKTGLKELPMRNLQEILHGAVRFSNNPALCNVESIQWRDIVSSDFLSNMSMDFQNHLGSCQKCDPSCPNGSCWGAGEENCQKLTKIICAQQCSGRCRGKSPSDCCHNQCAAGCTGPRESDCLVCRKFRDEATCKDTCPPLMLYNPTTYQMDVNPEGKYSFGATCVKKCPRNYVVTDHGSCVRACGADSYEMEEDGVRKCKKCEGPCRKVCNGIGIGEFKDSLSINATNIKHFKNCTSISGDLHILPVAFRGDSFTHTPPLDPQELDILKTVKEITGFLLIQAWPENRTDLHAFENLEIIRGRTKQHGQFSLAVVSLNITSLGLRSLKEISDGDVIISGNKNLCYANTINWKKLFGTSGQKTKIISNRGENSCKATGQVCHALCSPEGCWGPEPRDCVSCRNVSRGRECVDKCNLLEGEPREFVENSECIQCHPECLPQAMNITCTGRGPDNCIQCAHYIDGPHCVKTCPAGVMGENNTLVWKYADAGHVCHLCHPNCTYGCTGPGLEGCPTNGPKIPSIATGMVGALLLLLVVALGIGLFMRRRHIVRKRTLRRLLQERELVEPLTPSGEAPNQALLRILKETEFKKIKVLGSGAFGTVYKGLWIPEGEKVKIPVAIKELREATSPKANKEILDEAYVMASVDNPHVCRLLGICLTSTVQLITQLMPFGCLLDYVREHKDNIGSQYLLNWCVQIAKGMNYLEDRRLVHRDLAARNVLVKTPQHVKITDFGLAKLLGAEEKEYHAEGGKVPIKWMALESILHRIYTHQSDVWSYGVTVWELMTFGSKPYDGIPASEISSILEKGERLPQPPICTIDVYMIMVKCWMIDADSRPKFRELIIEFSKMARDPQRYLVIQGDERMHLPSPTDSNFYRALMDEEDMDDVVDADEYLIPQQGFFSSPSTSRTPLLSSLSATSNNSTVACIDRNGLQSCPIKEDSFLQRYSSDPTGALTEDSIDDTFLPVPEYINQSVPKRPAGSVQNPVYHNQPLNPAPSRDPHYQDPHSTAVGNPEYLNTVQPTCVNSTFDSPAHWAQKGSHQISLDNPDYQQDFFPKEAKPNGIFKGSTAENAEYLRVAPQSSEFIGA

> <PDB ID(s) of Target Chain>
1IVO,1M14,1M17,1MOX,1XKK,1Z9I,2GS2,2GS6,2ITW,2ITX,2ITY,2J5E,2J5F,2J6M,2RF9,2RGP,3B2V,3BEL,3GOP,3POZ,3QWQ,3VJO,3W2O,3W2P,3W2Q,3W2R,3W2S,3W32,3W33,4G5J,4I23,4JQ7,4JQ8,4JR3,4JRV,4KRO,4LI5,4RJ4,4RJ5,4RJ6,4RJ7,4RJ8,4TKS,4UIP,4UV7,4WKQ,4WRG,4ZAU,5C8K,5C8M,5C8N,5CAL,5CAN,5CAO,5CAP,5CAQ,5CAS,5CAU,5CAV,5EDP,5EDQ,5EDR,5EM5,5EM6,5EM7,5EM8,5FED,5GNK,5HCX,5HCY,5HCZ,5HIB,5HIC,5UGB,5WB7,5WB8,5Y25,6S89,6S8A

> <UniProt (SwissProt) Recommended Name of Target Chain>
Epidermal growth factor receptor

> <UniProt (SwissProt) Entry Name of Target Chain>
EGFR_HUMAN

> <UniProt (SwissProt) Primary ID of Target Chain>
P00533

> <UniProt (SwissProt) Secondary ID(s) of Target Chain>
O00688,O00732,P06268,Q14225,Q68GS5,Q92795,Q9BZS2,Q9GZX1,Q9H2C9,Q9H3C9,Q9UMD7,Q9UMD8,Q9UMG5

> <UniProt (SwissProt) Alternative ID(s) of Target Chain>


> <UniProt (TrEMBL) Submitted Name of Target Chain>


> <UniProt (TrEMBL) Entry Name of Target Chain>


> <UniProt (TrEMBL) Primary ID of Target Chain>


> <UniProt (TrEMBL) Secondary ID(s) of Target Chain>


> <UniProt (TrEMBL) Alternative ID(s) of Target Chain>


> <training label>
7.10237

> <i_lp_mmshare_version>
54117

> <s_epik_input>
W2NIXTFbY0hdW2NIXVtjSF1bY0hdYzFbQ0gyXU9jMltjSF1bY0hdYyhbY0hdW2NIXTIpW05IXWMzbltjSF1uYyhjMzQpW2NIXVtjSF1jKFtjSF00KU9bQ0gyXVtDSF09W0NIMl0=

> <s_epik_cmdline>
J2VwaWtfcHl0aG9uJywgJy1waHQnLCAnMC4xJywgJy1waCcsICc3LjQnLCAnLXRuJywgJzgnLCAnLW1hJywgJzIwMCcsICctaW1hZScsICc8aW5maWxlLm1hZT4nLCAnLW9tYWUnLCAnPG91dGZpbGUubWFlPic=

> <r_lp_tautomer_probability>
1

> <r_epik_Ionization_Penalty>
  0.0002

> <r_epik_Ionization_Penalty_Charging>
  0.0000

> <r_epik_Ionization_Penalty_Neutral>
  0.0002

> <r_epik_State_Penalty>
  0.0000

> <r_epik_Charging_Adjusted_Penalty>
0

> <i_epik_Tot_Q>
0

> <i_epik_Tot_abs_Q>
0

> <i_f3d_flags>
0

> <s_lp_Force_Field>
OPLS_2005

> <r_lp_Energy>
26.011444

> <b_lp_Chiralities_Consistent>
1

> <s_lp_Variant>
6-alkoxy-4-anilinoquinazoline-1

> <s_i_glide_gridfile>
struct_1_site_1

> <i_i_glide_lignum>
171

> <i_i_glide_rotatable_bonds>
8

> <r_i_docking_score>
-7.19310004645796

> <r_i_glide_ligand_efficiency>
-0.248037932636481

> <r_i_glide_ligand_efficiency_sa>
-0.762051112992044

> <r_i_glide_ligand_efficiency_ln>
-1.64703750935971

> <r_i_glide_gscore>
-7.19310004645796

> <r_i_glide_lipo>
-3.23259601524961

> <r_i_glide_hbond>
-0.434948152959715

> <r_i_glide_metal>
0

> <r_i_glide_rewards>
-1.92864914607396

> <r_i_glide_evdw>
-40.403923034668

> <r_i_glide_ecoul>
-4.22694635391235

> <r_i_glide_erotb>
1.05733137264558

> <r_i_glide_esite>
0

> <r_i_glide_emodel>
-36.0188704255354

> <r_i_glide_energy>
-44.6308693885803

> <r_i_glide_einternal>
6.79452514648438

> <i_i_glide_confnum>
144

> <i_i_glide_posenum>
63

> <r_i_glide_eff_state_penalty>
0

> <IC50 (nM)>
79

> <PMID>
12639547

> <Temp C>
23

> <r_glide_shape_similarity>
0.731046557426453

> <pH>
7.5

> <s_m_subgroup_title>
505 training

> <s_m_subgroupid>
pocket_pv

> <b_m_subgroup_collapsed>
0

$$$$
BindingDB_50102085_mol_1
                    3D
 Schrodinger Suite 2021-2.
 46 48  0  0  1  0            999 V2000
   22.0727   -0.1714   53.5059 C   0  0  0  0  0  0
   23.4366   -0.0999   53.8684 C   0  0  0  0  0  0
   21.2690   -1.1156   54.1807 C   0  0  0  0  0  0
   21.5114    0.6467   52.5115 C   0  0  0  0  0  0
   23.9356   -0.8988   54.8247 N   0  0  0  0  0  0
   19.9083   -1.2126   53.8411 C   0  0  0  0  0  0
   24.2868    0.8452   53.2761 N   0  0  0  0  0  0
   20.1539    0.5278   52.1741 C   0  0  0  0  0  0
   19.3347   -0.3888   52.8473 C   0  0  0  0  0  0
   27.8860   -0.0758   53.3854 C   0  0  0  0  0  0
   21.8012   -1.8967   55.1366 N   0  0  0  0  0  0
   26.4974   -0.2012   53.3343 C   0  0  0  0  0  0
   23.0926   -1.7364   55.4156 C   0  0  0  0  0  0
   25.6784    0.9440   53.3437 C   0  0  0  0  0  0
   19.5709    1.3368   51.2455 O   0  0  0  0  0  0
   28.4647    1.1926   53.4334 C   0  0  0  0  0  0
   27.6662    2.3431   53.4198 C   0  0  0  0  0  0
   28.8810   -1.4757   53.3902 Cl  0  0  0  0  0  0
   20.1648    1.3316   49.9691 C   0  0  0  0  0  0
   26.2705    2.2189   53.3671 C   0  0  0  0  0  0
   19.8542    2.6625   49.2992 C   0  0  1  0  0  0
   29.8050    1.2861   53.4771 F   0  0  0  0  0  0
   18.0061   -0.3884   52.4790 O   0  0  0  0  0  0
   20.3243    3.9348   47.2195 N   0  3  0  0  0  0
   20.4761    3.7024   50.0070 O   0  0  0  0  0  0
   20.4861    2.6541   47.9222 C   0  0  0  0  0  0
   17.1036   -1.1403   53.2599 C   0  0  0  0  0  0
   22.1104    1.3794   51.9967 H   0  0  0  0  0  0
   19.3079   -1.9279   54.3810 H   0  0  0  0  0  0
   23.8265    1.6199   52.8281 H   0  0  0  0  0  0
   26.0649   -1.1902   53.2861 H   0  0  0  0  0  0
   23.5119   -2.3834   56.1682 H   0  0  0  0  0  0
   28.1237    3.3223   53.4482 H   0  0  0  0  0  0
   19.6986    0.5319   49.3920 H   0  0  0  0  0  0
   21.2400    1.1136   49.9681 H   0  0  0  0  0  0
   25.6667    3.1164   53.3605 H   0  0  0  0  0  0
   18.7794    2.8330   49.2382 H   0  0  0  0  0  0
   21.1210    4.0946   46.6215 H   0  0  0  0  0  0
   20.2662    4.6562   47.9305 H   0  0  0  0  0  0
   20.2102    3.6053   50.9257 H   0  0  0  0  0  0
   19.9833    1.8576   47.3796 H   0  0  0  0  0  0
   21.5445    2.4241   48.0079 H   0  0  0  0  0  0
   16.0865   -0.9869   52.9054 H   0  0  0  0  0  0
   17.3238   -2.2093   53.1753 H   0  0  0  0  0  0
   17.1263   -0.8423   54.3091 H   0  0  0  0  0  0
   19.4677    3.9286   46.6748 H   0  0  0  0  0  0
  1  2  2  0  0  0
  1  3  1  0  0  0
  1  4  1  0  0  0
  2  5  1  0  0  0
  2  7  1  0  0  0
  3  6  1  0  0  0
  3 11  2  0  0  0
  4  8  2  0  0  0
  4 28  1  0  0  0
  5 13  2  0  0  0
  6  9  2  0  0  0
  6 29  1  0  0  0
  7 14  1  0  0  0
  7 30  1  0  0  0
  8  9  1  0  0  0
  8 15  1  0  0  0
  9 23  1  0  0  0
 10 12  2  0  0  0
 10 16  1  0  0  0
 10 18  1  0  0  0
 11 13  1  0  0  0
 12 14  1  0  0  0
 12 31  1  0  0  0
 13 32  1  0  0  0
 14 20  2  0  0  0
 15 19  1  0  0  0
 16 17  2  0  0  0
 16 22  1  0  0  0
 17 20  1  0  0  0
 17 33  1  0  0  0
 19 21  1  0  0  0
 19 34  1  0  0  0
 19 35  1  0  0  0
 20 36  1  0  0  0
 21 25  1  0  0  0
 21 26  1  0  0  0
 21 37  1  0  0  0
 23 27  1  0  0  0
 24 26  1  0  0  0
 24 38  1  0  0  0
 24 39  1  0  0  0
 24 46  1  0  0  0
 25 40  1  0  0  0
 26 41  1  0  0  0
 26 42  1  0  0  0
 27 43  1  0  0  0
 27 44  1  0  0  0
 27 45  1  0  0  0
M  CHG  1  24   1
M  END
> <s_m_entry_id>
358

> <s_m_entry_name>
pocket_pv.169

> <s_m_Source_Path>
/home/bortolaa/Project/GT/mario-master/docking/set505protein_struct_1_site_1_set505ligs_train

> <s_m_Source_File>
pocket_pv.maegz

> <i_m_Source_File_Index>
169

> <From>
www.bindingDB.org

> <BindingDB Reactant_set_id>
50733044

> <Ligand InChI>
InChI=1S/C18H18ClFN4O3/c1-26-16-6-15-12(5-17(16)27-8-11(25)7-21)18(23-9-22-15)24-10-2-3-14(20)13(19)4-10/h2-6,9,11,25H,7-8,21H2,1H3,(H,22,23,24)

> <Ligand InChI Key>
AYMHYBUGFXYGNZ-UHFFFAOYSA-N

> <BindingDB MonomerID>
50102085

> <BindingDB Ligand Name>
1-Amino-3-[4-(3-chloro-4-fluoro-phenylamino)-7-methoxy-quinazolin-6-yloxy]-propan-2-ol::CHEMBL56502

> <Target Name Assigned by Curator or DataSource>
Epidermal growth factor receptor

> <Target Source Organism According to Curator or DataSource>
Homo sapiens

> <Ki (nM)>


> <Kd (nM)>


> <EC50 (nM)>


> <kon (M-1-s-1)>


> <koff (s-1)>


> <pH>


> <Temp C>


> <Curation/DataSource>
ChEMBL

> <Article DOI>
10.1016/s0960-894x(01)00344-4

> <PubChem AID>


> <Patent Number>


> <Authors>
Barker, AJ; Gibson, KH; Grundy, W; Godfrey, AA; Barlow, JJ; Healy, MP; Woodburn, JR; Ashton, SE; Curry, BJ; Scarlett, L; Henthorn, L; Richards, L

> <Institution>
AstraZeneca

> <Link to Ligand in BindingDB>
http://www.bindingdb.org/bind/chemsearch/marvin/MolStructure.jsp?monomerid=50102085

> <Link to Ligand-Target Pair in BindingDB>
http://www.bindingdb.org/jsp/dbsearch/PrimarySearch_ki.jsp?energyterm=kJ/mole&tag=r21&monomerid=50102085&enzyme=Epidermal+growth+factor+receptor&column=ki&startPg=0&Increment=50&submit=Search

> <Ligand HET ID in PDB>


> <PDB ID(s) for Ligand-Target Complex>


> <PubChem CID>
44299926

> <PubChem SID>
103998642

> <ChEBI ID of Ligand>


> <ChEMBL ID of Ligand>
CHEMBL56502

> <DrugBank ID of Ligand>


> <IUPHAR_GRAC ID of Ligand>


> <KEGG ID of Ligand>


> <ZINC ID of Ligand>
ZINC29553940

> <Number of Protein Chains in Target (>
1

> <BindingDB Target Chain Sequence>
MRPSGTAGAALLALLAALCPASRALEEKKVCQGTSNKLTQLGTFEDHFLSLQRMFNNCEVVLGNLEITYVQRNYDLSFLKTIQEVAGYVLIALNTVERIPLENLQIIRGNMYYENSYALAVLSNYDANKTGLKELPMRNLQEILHGAVRFSNNPALCNVESIQWRDIVSSDFLSNMSMDFQNHLGSCQKCDPSCPNGSCWGAGEENCQKLTKIICAQQCSGRCRGKSPSDCCHNQCAAGCTGPRESDCLVCRKFRDEATCKDTCPPLMLYNPTTYQMDVNPEGKYSFGATCVKKCPRNYVVTDHGSCVRACGADSYEMEEDGVRKCKKCEGPCRKVCNGIGIGEFKDSLSINATNIKHFKNCTSISGDLHILPVAFRGDSFTHTPPLDPQELDILKTVKEITGFLLIQAWPENRTDLHAFENLEIIRGRTKQHGQFSLAVVSLNITSLGLRSLKEISDGDVIISGNKNLCYANTINWKKLFGTSGQKTKIISNRGENSCKATGQVCHALCSPEGCWGPEPRDCVSCRNVSRGRECVDKCNLLEGEPREFVENSECIQCHPECLPQAMNITCTGRGPDNCIQCAHYIDGPHCVKTCPAGVMGENNTLVWKYADAGHVCHLCHPNCTYGCTGPGLEGCPTNGPKIPSIATGMVGALLLLLVVALGIGLFMRRRHIVRKRTLRRLLQERELVEPLTPSGEAPNQALLRILKETEFKKIKVLGSGAFGTVYKGLWIPEGEKVKIPVAIKELREATSPKANKEILDEAYVMASVDNPHVCRLLGICLTSTVQLITQLMPFGCLLDYVREHKDNIGSQYLLNWCVQIAKGMNYLEDRRLVHRDLAARNVLVKTPQHVKITDFGLAKLLGAEEKEYHAEGGKVPIKWMALESILHRIYTHQSDVWSYGVTVWELMTFGSKPYDGIPASEISSILEKGERLPQPPICTIDVYMIMVKCWMIDADSRPKFRELIIEFSKMARDPQRYLVIQGDERMHLPSPTDSNFYRALMDEEDMDDVVDADEYLIPQQGFFSSPSTSRTPLLSSLSATSNNSTVACIDRNGLQSCPIKEDSFLQRYSSDPTGALTEDSIDDTFLPVPEYINQSVPKRPAGSVQNPVYHNQPLNPAPSRDPHYQDPHSTAVGNPEYLNTVQPTCVNSTFDSPAHWAQKGSHQISLDNPDYQQDFFPKEAKPNGIFKGSTAENAEYLRVAPQSSEFIGA

> <PDB ID(s) of Target Chain>
1IVO,1M14,1M17,1MOX,1XKK,1Z9I,2GS2,2GS6,2ITW,2ITX,2ITY,2J5E,2J5F,2J6M,2RF9,2RGP,3B2V,3BEL,3GOP,3POZ,3QWQ,3VJO,3W2O,3W2P,3W2Q,3W2R,3W2S,3W32,3W33,4G5J,4I23,4JQ7,4JQ8,4JR3,4JRV,4KRO,4LI5,4RJ4,4RJ5,4RJ6,4RJ7,4RJ8,4TKS,4UIP,4UV7,4WKQ,4WRG,4ZAU,5C8K,5C8M,5C8N,5CAL,5CAN,5CAO,5CAP,5CAQ,5CAS,5CAU,5CAV,5EDP,5EDQ,5EDR,5EM5,5EM6,5EM7,5EM8,5FED,5GNK,5HCX,5HCY,5HCZ,5HIB,5HIC,5UGB,5WB7,5WB8,5Y25,6S89,6S8A

> <UniProt (SwissProt) Recommended Name of Target Chain>
Epidermal growth factor receptor

> <UniProt (SwissProt) Entry Name of Target Chain>
EGFR_HUMAN

> <UniProt (SwissProt) Primary ID of Target Chain>
P00533

> <UniProt (SwissProt) Secondary ID(s) of Target Chain>
O00688,O00732,P06268,Q14225,Q68GS5,Q92795,Q9BZS2,Q9GZX1,Q9H2C9,Q9H3C9,Q9UMD7,Q9UMD8,Q9UMG5

> <UniProt (SwissProt) Alternative ID(s) of Target Chain>


> <UniProt (TrEMBL) Submitted Name of Target Chain>


> <UniProt (TrEMBL) Entry Name of Target Chain>


> <UniProt (TrEMBL) Primary ID of Target Chain>


> <UniProt (TrEMBL) Secondary ID(s) of Target Chain>


> <UniProt (TrEMBL) Alternative ID(s) of Target Chain>


> <training label>
8.22185

> <i_lp_mmshare_version>
54117

> <s_epik_input>
W05IMl1bQ0gyXVtDQEhdKFtPSF0pW0NIMl1PYyhbY0hdMSljKE9bQ0gzXSlbY0hdYyhjMTIpbltjSF1uYzJbTkhdYyhbY0hdYzNDbClbY0hdW2NIXWMzRg==

> <s_epik_cmdline>
J2VwaWtfcHl0aG9uJywgJy1waHQnLCAnMC4xJywgJy1waCcsICc3LjQnLCAnLXRuJywgJzgnLCAnLW1hJywgJzIwMCcsICctaW1hZScsICc8aW5maWxlLm1hZT4nLCAnLW9tYWUnLCAnPG91dGZpbGUubWFlPic=

> <r_lp_tautomer_probability>
0.999978000241998

> <r_epik_Ionization_Penalty>
  0.0354

> <r_epik_Ionization_Penalty_Charging>
  0.0349

> <r_epik_Ionization_Penalty_Neutral>
  0.0005

> <r_epik_State_Penalty>
  0.0291

> <r_epik_Charging_Adjusted_Penalty>
0.0640107414857699

> <i_epik_Tot_Q>
1

> <i_epik_Tot_abs_Q>
1

> <i_f3d_flags>
0

> <s_lp_Force_Field>
OPLS_2005

> <r_lp_Energy>
19.753319

> <b_lp_Chiralities_Consistent>
1

> <s_lp_Variant>
BindingDB_50102085_mol_1-1

> <s_i_glide_gridfile>
struct_1_site_1

> <i_i_glide_lignum>
248

> <i_i_glide_rotatable_bonds>
8

> <r_i_docking_score>
-7.18155391384741

> <r_i_glide_ligand_efficiency>
-0.265983478290645

> <r_i_glide_ligand_efficiency_sa>
-0.797950433995296

> <r_i_glide_ligand_efficiency_ln>
-1.67174735397417

> <r_i_glide_gscore>
-7.21065391384741

> <r_i_glide_lipo>
-3.02050056263811

> <r_i_glide_hbond>
-0.32

> <r_i_glide_metal>
0

> <r_i_glide_rewards>
-1.88002052874972

> <r_i_glide_evdw>
-40.570499420166

> <r_i_glide_ecoul>
-3.48254489898682

> <r_i_glide_erotb>
0.629898409799601

> <r_i_glide_esite>
-0.0691245264028589

> <r_i_glide_emodel>
-57.8533796171027

> <r_i_glide_energy>
-44.0530443191528

> <r_i_glide_einternal>
5.7653546333313

> <i_i_glide_confnum>
21

> <i_i_glide_posenum>
106

> <r_i_glide_eff_state_penalty>
0.0291

> <IC50 (nM)>
6

> <PMID>
11459659

> <r_glide_shape_similarity>
0.85922759771347

> <s_m_subgroup_title>
505 training

> <s_m_subgroupid>
pocket_pv

> <b_m_subgroup_collapsed>
0

$$$$
BindingDB_50428415_mol_1
                    3D
 Schrodinger Suite 2021-2.
 53 55  0  0  1  0            999 V2000
   19.5317    1.1660   51.0512 O   0  0  0  0  0  0
   21.8044   -1.9021   55.1448 N   0  0  0  0  0  0
   20.3335    1.7135   50.0019 C   0  0  0  0  0  0
   21.5068    0.6266   52.4573 C   0  0  0  0  0  0
   19.3190   -0.3993   52.8339 C   0  0  0  0  0  0
   21.2669   -1.1155   54.1836 C   0  0  0  0  0  0
   24.2871    0.8573   53.2714 N   0  0  0  0  0  0
   17.0679   -1.1703   53.2668 C   0  0  0  0  0  0
   17.9834   -0.4370   52.4675 O   0  0  0  0  0  0
   23.1023   -1.7448   55.4162 C   0  0  0  0  0  0
   23.4371   -0.0947   53.8633 C   0  0  0  0  0  0
   22.0708   -0.1689   53.4905 C   0  0  0  0  0  0
   23.9409   -0.8870   54.8343 N   0  0  0  0  0  0
   20.1386    0.4911   52.1010 C   0  0  0  0  0  0
   19.8977   -1.2106   53.8467 C   0  0  0  0  0  0
   25.6840    0.9520   53.3399 C   0  0  0  0  0  0
   26.5092   -0.1987   53.3284 C   0  0  0  0  0  0
   27.9109   -0.0730   53.3854 C   0  0  0  0  0  0
   28.4904    1.2105   53.4654 C   0  0  0  0  0  0
   27.6776    2.3638   53.4320 C   0  0  0  0  0  0
   26.2754    2.2353   53.3695 C   0  0  0  0  0  0
   28.9070   -1.4930   53.3747 Cl  0  0  0  0  0  0
   29.8317    1.3231   53.5809 F   0  0  0  0  0  0
   20.7123    3.1662   50.3650 C   0  0  0  0  0  0
   21.9256    3.7253   49.5748 C   0  0  0  0  0  0
   22.4315    5.0310   50.1115 N   0  3  0  0  0  0
   23.1915    4.9520   51.3996 C   0  0  0  0  0  0
   23.7877    6.3245   51.8066 C   0  0  0  0  0  0
   24.9384    6.6705   50.9750 N   0  0  0  0  0  0
   19.7586    1.6996   49.0763 H   0  0  0  0  0  0
   21.2128    1.0982   49.8130 H   0  0  0  0  0  0
   22.1346    1.3139   51.9140 H   0  0  0  0  0  0
   23.8191    1.6346   52.8313 H   0  0  0  0  0  0
   16.0526   -0.9822   52.9184 H   0  0  0  0  0  0
   17.2553   -2.2418   53.1949 H   0  0  0  0  0  0
   17.1195   -0.8738   54.3142 H   0  0  0  0  0  0
   23.5172   -2.3963   56.1716 H   0  0  0  0  0  0
   19.2901   -1.9129   54.4010 H   0  0  0  0  0  0
   26.0740   -1.1866   53.2675 H   0  0  0  0  0  0
   28.1267    3.3440   53.4776 H   0  0  0  0  0  0
   25.6670    3.1287   53.3609 H   0  0  0  0  0  0
   20.9359    3.2091   51.4302 H   0  0  0  0  0  0
   19.8475    3.8129   50.2242 H   0  0  0  0  0  0
   21.6454    3.8667   48.5299 H   0  0  0  0  0  0
   22.7461    3.0048   49.5764 H   0  0  0  0  0  0
   21.6545    5.6784   50.2261 H   0  0  0  0  0  0
   23.9845    4.2057   51.3264 H   0  0  0  0  0  0
   22.5196    4.6190   52.1921 H   0  0  0  0  0  0
   24.1384    6.2832   52.8401 H   0  0  0  0  0  0
   23.0340    7.1114   51.7615 H   0  0  0  0  0  0
   25.2523    7.6011   51.2461 H   0  0  0  0  0  0
   25.7180    6.0737   51.2577 H   0  0  0  0  0  0
   23.0717    5.4355   49.4286 H   0  0  0  0  0  0
  1  3  1  0  0  0
  1 14  1  0  0  0
  2  6  1  0  0  0
  2 10  2  0  0  0
  3 24  1  0  0  0
  3 30  1  0  0  0
  3 31  1  0  0  0
  4 12  2  0  0  0
  4 14  1  0  0  0
  4 32  1  0  0  0
  5  9  1  0  0  0
  5 14  2  0  0  0
  5 15  1  0  0  0
  6 12  1  0  0  0
  6 15  2  0  0  0
  7 11  1  0  0  0
  7 16  1  0  0  0
  7 33  1  0  0  0
  8  9  1  0  0  0
  8 34  1  0  0  0
  8 35  1  0  0  0
  8 36  1  0  0  0
 10 13  1  0  0  0
 10 37  1  0  0  0
 11 12  1  0  0  0
 11 13  2  0  0  0
 15 38  1  0  0  0
 16 17  2  0  0  0
 16 21  1  0  0  0
 17 18  1  0  0  0
 17 39  1  0  0  0
 18 19  2  0  0  0
 18 22  1  0  0  0
 19 20  1  0  0  0
 19 23  1  0  0  0
 20 21  2  0  0  0
 20 40  1  0  0  0
 21 41  1  0  0  0
 24 25  1  0  0  0
 24 42  1  0  0  0
 24 43  1  0  0  0
 25 26  1  0  0  0
 25 44  1  0  0  0
 25 45  1  0  0  0
 26 27  1  0  0  0
 26 46  1  0  0  0
 26 53  1  0  0  0
 27 28  1  0  0  0
 27 47  1  0  0  0
 27 48  1  0  0  0
 28 29  1  0  0  0
 28 49  1  0  0  0
 28 50  1  0  0  0
 29 51  1  0  0  0
 29 52  1  0  0  0
M  CHG  1  26   1
M  END
> <s_m_entry_id>
359

> <s_m_entry_name>
pocket_pv.170

> <s_m_Source_Path>
/home/bortolaa/Project/GT/mario-master/docking/set505protein_struct_1_site_1_set505ligs_train

> <s_m_Source_File>
pocket_pv.maegz

> <i_m_Source_File_Index>
170

> <From>
www.bindingDB.org

> <BindingDB Reactant_set_id>
51049783

> <Ligand InChI>
InChI=1S/C20H23ClFN5O2/c1-28-18-11-17-14(10-19(18)29-8-2-6-24-7-5-23)20(26-12-25-17)27-13-3-4-16(22)15(21)9-13/h3-4,9-12,24H,2,5-8,23H2,1H3,(H,25,26,27)

> <Ligand InChI Key>
CYOARVZSCJFENO-UHFFFAOYSA-N

> <BindingDB MonomerID>
50428415

> <BindingDB Ligand Name>
CHEMBL2334003

> <Target Name Assigned by Curator or DataSource>
Epidermal growth factor receptor

> <Target Source Organism According to Curator or DataSource>
Homo sapiens

> <Ki (nM)>


> <Kd (nM)>


> <EC50 (nM)>


> <kon (M-1-s-1)>


> <koff (s-1)>


> <pH>


> <Temp C>


> <Curation/DataSource>
ChEMBL

> <Article DOI>
10.1016/j.ejmech.2012.07.036

> <PubChem AID>


> <Patent Number>


> <Authors>
Lu, S; Zheng, W; Ji, L; Luo, Q; Hao, X; Li, X; Wang, F

> <Institution>
Chinese Academy of Sciences

> <Link to Ligand in BindingDB>
http://www.bindingdb.org/bind/chemsearch/marvin/MolStructure.jsp?monomerid=50428415

> <Link to Ligand-Target Pair in BindingDB>
http://www.bindingdb.org/jsp/dbsearch/PrimarySearch_ki.jsp?energyterm=kJ/mole&tag=r21&monomerid=50428415&enzyme=Epidermal+growth+factor+receptor&column=ki&startPg=0&Increment=50&submit=Search

> <Ligand HET ID in PDB>


> <PDB ID(s) for Ligand-Target Complex>


> <PubChem CID>
71579405

> <PubChem SID>
164157290

> <ChEBI ID of Ligand>


> <ChEMBL ID of Ligand>
CHEMBL2334003

> <DrugBank ID of Ligand>


> <IUPHAR_GRAC ID of Ligand>


> <KEGG ID of Ligand>


> <ZINC ID of Ligand>
ZINC95586456

> <Number of Protein Chains in Target (>
1

> <BindingDB Target Chain Sequence>
MRPSGTAGAALLALLAALCPASRALEEKKVCQGTSNKLTQLGTFEDHFLSLQRMFNNCEVVLGNLEITYVQRNYDLSFLKTIQEVAGYVLIALNTVERIPLENLQIIRGNMYYENSYALAVLSNYDANKTGLKELPMRNLQEILHGAVRFSNNPALCNVESIQWRDIVSSDFLSNMSMDFQNHLGSCQKCDPSCPNGSCWGAGEENCQKLTKIICAQQCSGRCRGKSPSDCCHNQCAAGCTGPRESDCLVCRKFRDEATCKDTCPPLMLYNPTTYQMDVNPEGKYSFGATCVKKCPRNYVVTDHGSCVRACGADSYEMEEDGVRKCKKCEGPCRKVCNGIGIGEFKDSLSINATNIKHFKNCTSISGDLHILPVAFRGDSFTHTPPLDPQELDILKTVKEITGFLLIQAWPENRTDLHAFENLEIIRGRTKQHGQFSLAVVSLNITSLGLRSLKEISDGDVIISGNKNLCYANTINWKKLFGTSGQKTKIISNRGENSCKATGQVCHALCSPEGCWGPEPRDCVSCRNVSRGRECVDKCNLLEGEPREFVENSECIQCHPECLPQAMNITCTGRGPDNCIQCAHYIDGPHCVKTCPAGVMGENNTLVWKYADAGHVCHLCHPNCTYGCTGPGLEGCPTNGPKIPSIATGMVGALLLLLVVALGIGLFMRRRHIVRKRTLRRLLQERELVEPLTPSGEAPNQALLRILKETEFKKIKVLGSGAFGTVYKGLWIPEGEKVKIPVAIKELREATSPKANKEILDEAYVMASVDNPHVCRLLGICLTSTVQLITQLMPFGCLLDYVREHKDNIGSQYLLNWCVQIAKGMNYLEDRRLVHRDLAARNVLVKTPQHVKITDFGLAKLLGAEEKEYHAEGGKVPIKWMALESILHRIYTHQSDVWSYGVTVWELMTFGSKPYDGIPASEISSILEKGERLPQPPICTIDVYMIMVKCWMIDADSRPKFRELIIEFSKMARDPQRYLVIQGDERMHLPSPTDSNFYRALMDEEDMDDVVDADEYLIPQQGFFSSPSTSRTPLLSSLSATSNNSTVACIDRNGLQSCPIKEDSFLQRYSSDPTGALTEDSIDDTFLPVPEYINQSVPKRPAGSVQNPVYHNQPLNPAPSRDPHYQDPHSTAVGNPEYLNTVQPTCVNSTFDSPAHWAQKGSHQISLDNPDYQQDFFPKEAKPNGIFKGSTAENAEYLRVAPQSSEFIGA

> <PDB ID(s) of Target Chain>
1IVO,1M14,1M17,1MOX,1XKK,1Z9I,2GS2,2GS6,2ITW,2ITX,2ITY,2J5E,2J5F,2J6M,2RF9,2RGP,3B2V,3BEL,3GOP,3POZ,3QWQ,3VJO,3W2O,3W2P,3W2Q,3W2R,3W2S,3W32,3W33,4G5J,4I23,4JQ7,4JQ8,4JR3,4JRV,4KRO,4LI5,4RJ4,4RJ5,4RJ6,4RJ7,4RJ8,4TKS,4UIP,4UV7,4WKQ,4WRG,4ZAU,5C8K,5C8M,5C8N,5CAL,5CAN,5CAO,5CAP,5CAQ,5CAS,5CAU,5CAV,5EDP,5EDQ,5EDR,5EM5,5EM6,5EM7,5EM8,5FED,5GNK,5HCX,5HCY,5HCZ,5HIB,5HIC,5UGB,5WB7,5WB8,5Y25,6S89,6S8A

> <UniProt (SwissProt) Recommended Name of Target Chain>
Epidermal growth factor receptor

> <UniProt (SwissProt) Entry Name of Target Chain>
EGFR_HUMAN

> <UniProt (SwissProt) Primary ID of Target Chain>
P00533

> <UniProt (SwissProt) Secondary ID(s) of Target Chain>
O00688,O00732,P06268,Q14225,Q68GS5,Q92795,Q9BZS2,Q9GZX1,Q9H2C9,Q9H3C9,Q9UMD7,Q9UMD8,Q9UMG5

> <UniProt (SwissProt) Alternative ID(s) of Target Chain>


> <UniProt (TrEMBL) Submitted Name of Target Chain>


> <UniProt (TrEMBL) Entry Name of Target Chain>


> <UniProt (TrEMBL) Primary ID of Target Chain>


> <UniProt (TrEMBL) Secondary ID(s) of Target Chain>


> <UniProt (TrEMBL) Alternative ID(s) of Target Chain>


> <training label>
7.85387

> <i_lp_mmshare_version>
54117

> <s_epik_input>
W05IMl1bQ0gyXVtDSDJdW05IXVtDSDJdW0NIMl1bQ0gyXU9jKGMoW2NIXTEpT1tDSDNdKVtjSF1jKGMxMiljKG5bY0hdbjIpW05IXWMzW2NIXWMoQ2wpYyhGKVtjSF1bY0hdMw==

> <s_epik_cmdline>
J2VwaWtfcHl0aG9uJywgJy1waHQnLCAnMC4xJywgJy1waCcsICc3LjQnLCAnLXRuJywgJzgnLCAnLW1hJywgJzIwMCcsICctaW1hZScsICc8aW5maWxlLm1hZT4nLCAnLW9tYWUnLCAnPG91dGZpbGUubWFlPic=

> <r_lp_tautomer_probability>
0.999978000241998

> <r_epik_Ionization_Penalty>
  0.1899

> <r_epik_Ionization_Penalty_Charging>
  0.0051

> <r_epik_Ionization_Penalty_Neutral>
  0.1848

> <r_epik_State_Penalty>
  0.4650

> <r_epik_Charging_Adjusted_Penalty>
0.470099913479011

> <i_epik_Tot_Q>
1

> <i_epik_Tot_abs_Q>
1

> <i_f3d_flags>
0

> <s_lp_Force_Field>
OPLS_2005

> <r_lp_Energy>
24.403557

> <b_lp_Chiralities_Consistent>
1

> <s_lp_Variant>
BindingDB_50428415_mol_1-1

> <s_i_glide_gridfile>
struct_1_site_1

> <i_i_glide_lignum>
221

> <i_i_glide_rotatable_bonds>
10

> <r_i_docking_score>
-7.16269547879909

> <r_i_glide_ligand_efficiency>
-0.246989499268934

> <r_i_glide_ligand_efficiency_sa>
-0.758829993519934

> <r_i_glide_ligand_efficiency_ln>
-1.64007563435914

> <r_i_glide_gscore>
-7.62769547879909

> <r_i_glide_lipo>
-2.93758448345402

> <r_i_glide_hbond>
-0.393982122470633

> <r_i_glide_metal>
0

> <r_i_glide_rewards>
-1.69035599010038

> <r_i_glide_evdw>
-43.5377540588379

> <r_i_glide_ecoul>
-8.37054824829102

> <r_i_glide_erotb>
0.894015903054694

> <r_i_glide_esite>
-0.0673188456432112

> <r_i_glide_emodel>
-60.7804523196823

> <r_i_glide_energy>
-51.9083023071289

> <r_i_glide_einternal>
4.04426336288452

> <i_i_glide_confnum>
120

> <i_i_glide_posenum>
51

> <r_i_glide_eff_state_penalty>
0.465

> <IC50 (nM)>
14

> <PMID>
22867529

> <r_glide_shape_similarity>
0.791577041149139

> <s_m_subgroup_title>
505 training

> <s_m_subgroupid>
pocket_pv

> <b_m_subgroup_collapsed>
0

$$$$
BindingDB_50308823_mol_1
                    3D
 Schrodinger Suite 2021-2.
 50 52  0  0  1  0            999 V2000
   20.0929    0.5418   52.1781 C   0  0  0  0  0  0
   19.3091   -0.4150   52.8635 C   0  0  0  0  0  0
   19.8961   -1.2331   53.8524 C   0  0  0  0  0  0
   21.4792    0.6596   52.4909 C   0  0  0  0  0  0
   22.0621   -0.1641   53.4938 C   0  0  0  0  0  0
   21.2663   -1.1228   54.1845 C   0  0  0  0  0  0
   21.8049   -1.9060   55.1476 N   0  0  0  0  0  0
   23.0988   -1.7464   55.4173 C   0  0  0  0  0  0
   23.9399   -0.8962   54.8303 N   0  0  0  0  0  0
   23.4321   -0.0924   53.8659 C   0  0  0  0  0  0
   24.2842    0.8564   53.2745 N   0  0  0  0  0  0
   25.6817    0.9494   53.3411 C   0  0  0  0  0  0
   26.5082   -0.1988   53.3282 C   0  0  0  0  0  0
   27.9105   -0.0738   53.3880 C   0  0  0  0  0  0
   28.4943    1.2093   53.4563 C   0  0  0  0  0  0
   27.6787    2.3639   53.4305 C   0  0  0  0  0  0
   26.2751    2.2322   53.3687 C   0  0  0  0  0  0
   28.9048   -1.4926   53.3743 Cl  0  0  0  0  0  0
   19.4065    1.3238   51.2644 O   0  0  0  0  0  0
   17.9678   -0.5386   52.5813 O   0  0  0  0  0  0
   20.1000    2.1804   50.3674 C   0  0  0  0  0  0
   20.7074    1.3346   49.2395 C   0  0  0  0  0  0
   21.5811    2.1400   48.2578 C   0  0  0  0  0  0
   20.7995    3.1573   47.3840 C   0  0  0  0  0  0
   29.8383    1.3223   53.5609 F   0  0  0  0  0  0
   21.6773    3.7159   46.2289 C   0  0  0  0  0  0
   20.8717    4.5102   45.2006 C   0  0  0  0  0  0
   20.6572    4.1106   43.9586 C   0  0  0  0  0  0
   20.4105    3.7234   42.7229 C   0  0  0  0  0  0
   19.2931   -1.9472   54.3937 H   0  0  0  0  0  0
   22.0874    1.3852   51.9728 H   0  0  0  0  0  0
   23.5142   -2.3908   56.1743 H   0  0  0  0  0  0
   23.8206    1.6341   52.8278 H   0  0  0  0  0  0
   26.0713   -1.1846   53.2670 H   0  0  0  0  0  0
   28.1242    3.3481   53.4759 H   0  0  0  0  0  0
   25.6679    3.1261   53.3601 H   0  0  0  0  0  0
   17.4782   -1.1209   53.1431 H   0  0  0  0  0  0
   20.8417    2.7931   50.8801 H   0  0  0  0  0  0
   19.3765    2.8823   49.9492 H   0  0  0  0  0  0
   19.9127    0.8224   48.6977 H   0  0  0  0  0  0
   21.3278    0.5464   49.6645 H   0  0  0  0  0  0
   22.0818    1.4234   47.6062 H   0  0  0  0  0  0
   22.3760    2.6553   48.8020 H   0  0  0  0  0  0
   20.4455    3.9822   48.0040 H   0  0  0  0  0  0
   19.9034    2.6848   46.9763 H   0  0  0  0  0  0
   22.1834    2.8943   45.7197 H   0  0  0  0  0  0
   22.4639    4.3584   46.6279 H   0  0  0  0  0  0
   20.4681    5.4497   45.5435 H   0  0  0  0  0  0
   21.0822    3.9749   41.9149 H   0  0  0  0  0  0
   19.5355    3.1423   42.4654 H   0  0  0  0  0  0
  1  2  2  0  0  0
  1  4  1  0  0  0
  1 19  1  0  0  0
  2  3  1  0  0  0
  2 20  1  0  0  0
  3  6  2  0  0  0
  3 30  1  0  0  0
  4  5  2  0  0  0
  4 31  1  0  0  0
  5  6  1  0  0  0
  5 10  1  0  0  0
  6  7  1  0  0  0
  7  8  2  0  0  0
  8  9  1  0  0  0
  8 32  1  0  0  0
  9 10  2  0  0  0
 10 11  1  0  0  0
 11 12  1  0  0  0
 11 33  1  0  0  0
 12 13  1  0  0  0
 12 17  2  0  0  0
 13 14  2  0  0  0
 13 34  1  0  0  0
 14 15  1  0  0  0
 14 18  1  0  0  0
 15 16  2  0  0  0
 15 25  1  0  0  0
 16 17  1  0  0  0
 16 35  1  0  0  0
 17 36  1  0  0  0
 19 21  1  0  0  0
 20 37  1  0  0  0
 21 22  1  0  0  0
 21 38  1  0  0  0
 21 39  1  0  0  0
 22 23  1  0  0  0
 22 40  1  0  0  0
 22 41  1  0  0  0
 23 24  1  0  0  0
 23 42  1  0  0  0
 23 43  1  0  0  0
 24 26  1  0  0  0
 24 44  1  0  0  0
 24 45  1  0  0  0
 26 27  1  0  0  0
 26 46  1  0  0  0
 26 47  1  0  0  0
 27 28  2  0  0  0
 27 48  1  0  0  0
 28 29  2  0  0  0
 29 49  1  0  0  0
 29 50  1  0  0  0
M  END
> <s_m_entry_id>
360

> <s_m_entry_name>
pocket_pv.171

> <s_m_Source_Path>
/home/bortolaa/Project/GT/mario-master/docking/set505protein_struct_1_site_1_set505ligs_train

> <s_m_Source_File>
pocket_pv.maegz

> <i_m_Source_File_Index>
171

> <From>
www.bindingDB.org

> <BindingDB Reactant_set_id>
50554726

> <Ligand InChI>
InChI=1S/C22H21ClFN3O2/c1-2-3-4-5-6-7-10-29-21-12-16-19(13-20(21)28)25-14-26-22(16)27-15-8-9-18(24)17(23)11-15/h3,8-9,11-14,28H,1,4-7,10H2,(H,25,26,27)

> <Ligand InChI Key>
KLWRCYQROACQNJ-UHFFFAOYSA-N

> <BindingDB MonomerID>
50308823

> <BindingDB Ligand Name>
4-(3-Chloro-4-fluorophenylamino)-6-(octa-6,7-dienyloxy)-7-methoxyquinazoline::CHEMBL590559

> <Target Name Assigned by Curator or DataSource>
Epidermal growth factor receptor

> <Target Source Organism According to Curator or DataSource>
Homo sapiens

> <Ki (nM)>


> <Kd (nM)>


> <EC50 (nM)>


> <kon (M-1-s-1)>


> <koff (s-1)>


> <pH>


> <Temp C>


> <Curation/DataSource>
ChEMBL

> <Article DOI>
10.1016/j.bmc.2009.11.035

> <PubChem AID>


> <Patent Number>


> <Authors>
Ban, HS; Tanaka, Y; Nabeyama, W; Hatori, M; Nakamura, H

> <Institution>
Gakushuin University

> <Link to Ligand in BindingDB>
http://www.bindingdb.org/bind/chemsearch/marvin/MolStructure.jsp?monomerid=50308823

> <Link to Ligand-Target Pair in BindingDB>
http://www.bindingdb.org/jsp/dbsearch/PrimarySearch_ki.jsp?energyterm=kJ/mole&tag=r21&monomerid=50308823&enzyme=Epidermal+growth+factor+receptor&column=ki&startPg=0&Increment=50&submit=Search

> <Ligand HET ID in PDB>


> <PDB ID(s) for Ligand-Target Complex>


> <PubChem CID>
46229814

> <PubChem SID>
104163184

> <ChEBI ID of Ligand>


> <ChEMBL ID of Ligand>
CHEMBL590559

> <DrugBank ID of Ligand>


> <IUPHAR_GRAC ID of Ligand>


> <KEGG ID of Ligand>


> <ZINC ID of Ligand>
ZINC45337173

> <Number of Protein Chains in Target (>
1

> <BindingDB Target Chain Sequence>
MRPSGTAGAALLALLAALCPASRALEEKKVCQGTSNKLTQLGTFEDHFLSLQRMFNNCEVVLGNLEITYVQRNYDLSFLKTIQEVAGYVLIALNTVERIPLENLQIIRGNMYYENSYALAVLSNYDANKTGLKELPMRNLQEILHGAVRFSNNPALCNVESIQWRDIVSSDFLSNMSMDFQNHLGSCQKCDPSCPNGSCWGAGEENCQKLTKIICAQQCSGRCRGKSPSDCCHNQCAAGCTGPRESDCLVCRKFRDEATCKDTCPPLMLYNPTTYQMDVNPEGKYSFGATCVKKCPRNYVVTDHGSCVRACGADSYEMEEDGVRKCKKCEGPCRKVCNGIGIGEFKDSLSINATNIKHFKNCTSISGDLHILPVAFRGDSFTHTPPLDPQELDILKTVKEITGFLLIQAWPENRTDLHAFENLEIIRGRTKQHGQFSLAVVSLNITSLGLRSLKEISDGDVIISGNKNLCYANTINWKKLFGTSGQKTKIISNRGENSCKATGQVCHALCSPEGCWGPEPRDCVSCRNVSRGRECVDKCNLLEGEPREFVENSECIQCHPECLPQAMNITCTGRGPDNCIQCAHYIDGPHCVKTCPAGVMGENNTLVWKYADAGHVCHLCHPNCTYGCTGPGLEGCPTNGPKIPSIATGMVGALLLLLVVALGIGLFMRRRHIVRKRTLRRLLQERELVEPLTPSGEAPNQALLRILKETEFKKIKVLGSGAFGTVYKGLWIPEGEKVKIPVAIKELREATSPKANKEILDEAYVMASVDNPHVCRLLGICLTSTVQLITQLMPFGCLLDYVREHKDNIGSQYLLNWCVQIAKGMNYLEDRRLVHRDLAARNVLVKTPQHVKITDFGLAKLLGAEEKEYHAEGGKVPIKWMALESILHRIYTHQSDVWSYGVTVWELMTFGSKPYDGIPASEISSILEKGERLPQPPICTIDVYMIMVKCWMIDADSRPKFRELIIEFSKMARDPQRYLVIQGDERMHLPSPTDSNFYRALMDEEDMDDVVDADEYLIPQQGFFSSPSTSRTPLLSSLSATSNNSTVACIDRNGLQSCPIKEDSFLQRYSSDPTGALTEDSIDDTFLPVPEYINQSVPKRPAGSVQNPVYHNQPLNPAPSRDPHYQDPHSTAVGNPEYLNTVQPTCVNSTFDSPAHWAQKGSHQISLDNPDYQQDFFPKEAKPNGIFKGSTAENAEYLRVAPQSSEFIGA

> <PDB ID(s) of Target Chain>
1IVO,1M14,1M17,1MOX,1XKK,1Z9I,2GS2,2GS6,2ITW,2ITX,2ITY,2J5E,2J5F,2J6M,2RF9,2RGP,3B2V,3BEL,3GOP,3POZ,3QWQ,3VJO,3W2O,3W2P,3W2Q,3W2R,3W2S,3W32,3W33,4G5J,4I23,4JQ7,4JQ8,4JR3,4JRV,4KRO,4LI5,4RJ4,4RJ5,4RJ6,4RJ7,4RJ8,4TKS,4UIP,4UV7,4WKQ,4WRG,4ZAU,5C8K,5C8M,5C8N,5CAL,5CAN,5CAO,5CAP,5CAQ,5CAS,5CAU,5CAV,5EDP,5EDQ,5EDR,5EM5,5EM6,5EM7,5EM8,5FED,5GNK,5HCX,5HCY,5HCZ,5HIB,5HIC,5UGB,5WB7,5WB8,5Y25,6S89,6S8A

> <UniProt (SwissProt) Recommended Name of Target Chain>
Epidermal growth factor receptor

> <UniProt (SwissProt) Entry Name of Target Chain>
EGFR_HUMAN

> <UniProt (SwissProt) Primary ID of Target Chain>
P00533

> <UniProt (SwissProt) Secondary ID(s) of Target Chain>
O00688,O00732,P06268,Q14225,Q68GS5,Q92795,Q9BZS2,Q9GZX1,Q9H2C9,Q9H3C9,Q9UMD7,Q9UMD8,Q9UMG5

> <UniProt (SwissProt) Alternative ID(s) of Target Chain>


> <UniProt (TrEMBL) Submitted Name of Target Chain>


> <UniProt (TrEMBL) Entry Name of Target Chain>


> <UniProt (TrEMBL) Primary ID of Target Chain>


> <UniProt (TrEMBL) Secondary ID(s) of Target Chain>


> <UniProt (TrEMBL) Alternative ID(s) of Target Chain>


> <training label>
8.35164

> <i_lp_mmshare_version>
54117

> <s_epik_input>
W0NIMl09Qz1bQ0hdW0NIMl1bQ0gyXVtDSDJdW0NIMl1bQ0gyXU9jKFtjSF0xKWMoW09IXSlbY0hdYyhjMTIpbltjSF1uYzJbTkhdYzNbY0hdYyhDbCljKEYpW2NIXVtjSF0z

> <s_epik_cmdline>
J2VwaWtfcHl0aG9uJywgJy1waHQnLCAnMC4xJywgJy1waCcsICc3LjQnLCAnLXRuJywgJzgnLCAnLW1hJywgJzIwMCcsICctaW1hZScsICc8aW5maWxlLm1hZT4nLCAnLW9tYWUnLCAnPG91dGZpbGUubWFlPic=

> <r_epik_Ionization_Penalty>
  0.0891

> <r_epik_Ionization_Penalty_Charging>
  0.0000

> <r_epik_Ionization_Penalty_Neutral>
  0.0891

> <r_epik_State_Penalty>
  0.0794

> <r_epik_Charging_Adjusted_Penalty>
0.0794126947729573

> <i_epik_Tot_Q>
0

> <i_epik_Tot_abs_Q>
0

> <i_f3d_flags>
0

> <s_lp_Force_Field>
OPLS_2005

> <r_lp_Energy>
-3.385622

> <b_lp_Chiralities_Consistent>
1

> <s_lp_Variant>
BindingDB_50308823_mol_1-1

> <s_i_glide_gridfile>
struct_1_site_1

> <i_i_glide_lignum>
258

> <i_i_glide_rotatable_bonds>
10

> <r_i_docking_score>
-7.15411376053986

> <r_i_glide_ligand_efficiency>
-0.24669357794965

> <r_i_glide_ligand_efficiency_sa>
-0.757920829472639

> <r_i_glide_ligand_efficiency_ln>
-1.63811063849137

> <r_i_glide_gscore>
-7.23351376053986

> <r_i_glide_lipo>
-3.23769396399194

> <r_i_glide_hbond>
-0.32

> <r_i_glide_metal>
0

> <r_i_glide_rewards>
-1.73612482868396

> <r_i_glide_evdw>
-44.4275512695312

> <r_i_glide_ecoul>
-4.58057069778442

> <r_i_glide_erotb>
1.03678169957906

> <r_i_glide_esite>
-0.0680134992987885

> <r_i_glide_emodel>
-50.1896136452976

> <r_i_glide_energy>
-49.0081219673157

> <r_i_glide_einternal>
5.40101146697998

> <i_i_glide_confnum>
203

> <i_i_glide_posenum>
362

> <r_i_glide_eff_state_penalty>
0.0794

> <IC50 (nM)>
4.45

> <PMID>
19969465

> <r_glide_shape_similarity>
0.809803485870361

> <s_m_subgroup_title>
505 training

> <s_m_subgroupid>
pocket_pv

> <b_m_subgroup_collapsed>
0

$$$$
BindingDB_50102072_mol_1
                    3D
 Schrodinger Suite 2021-2.
 58 61  0  0  1  0            999 V2000
   22.0728   -0.1694   53.5077 C   0  0  0  0  0  0
   23.4402   -0.0998   53.8718 C   0  0  0  0  0  0
   21.2646   -1.1198   54.1872 C   0  0  0  0  0  0
   21.5158    0.6493   52.5024 C   0  0  0  0  0  0
   23.9439   -0.9073   54.8310 N   0  0  0  0  0  0
   19.8934   -1.2094   53.8474 C   0  0  0  0  0  0
   24.2867    0.8521   53.2750 N   0  0  0  0  0  0
   20.1603    0.5112   52.1359 C   0  0  0  0  0  0
   19.3229   -0.3888   52.8350 C   0  0  0  0  0  0
   27.9128   -0.0734   53.3865 C   0  0  0  0  0  0
   21.8011   -1.9078   55.1468 N   0  0  0  0  0  0
   26.5106   -0.2004   53.3289 C   0  0  0  0  0  0
   18.5338    3.0874   48.7813 N   0  3  0  0  0  0
   23.0990   -1.7527   55.4179 C   0  0  0  0  0  0
   25.6835    0.9495   53.3400 C   0  0  0  0  0  0
   28.4933    1.2114   53.4599 C   0  0  0  0  0  0
   27.6774    2.3644   53.4306 C   0  0  0  0  0  0
   28.9087   -1.4916   53.3746 Cl  0  0  0  0  0  0
   26.2748    2.2337   53.3689 C   0  0  0  0  0  0
   29.8354    1.3258   53.5827 F   0  0  0  0  0  0
   19.6410    1.2083   51.0724 O   0  0  0  0  0  0
   17.9917   -0.4120   52.4498 O   0  0  0  0  0  0
   19.7381    3.5692   49.5153 C   0  0  0  0  0  0
   20.8775    2.5374   49.4455 C   0  0  0  0  0  0
   18.4553    3.6155   47.3861 C   0  0  0  0  0  0
   17.2687    3.2895   49.5502 C   0  0  0  0  0  0
   20.4029    1.1358   49.8621 C   0  0  0  0  0  0
   17.0630   -1.1501   53.2323 C   0  0  0  0  0  0
   16.0692    2.6296   48.8293 C   0  0  0  0  0  0
   17.2665    2.9925   46.6109 C   0  0  0  0  0  0
   15.9325    3.1602   47.3814 C   0  0  0  0  0  0
   22.1289    1.3584   51.9688 H   0  0  0  0  0  0
   19.2853   -1.9165   54.3900 H   0  0  0  0  0  0
   23.8190    1.6295   52.8320 H   0  0  0  0  0  0
   26.0767   -1.1880   53.2728 H   0  0  0  0  0  0
   23.5136   -2.4009   56.1749 H   0  0  0  0  0  0
   28.1243    3.3472   53.4776 H   0  0  0  0  0  0
   25.6651    3.1267   53.3605 H   0  0  0  0  0  0
   20.0661    4.5388   49.1362 H   0  0  0  0  0  0
   19.4943    3.7374   50.5660 H   0  0  0  0  0  0
   21.2904    2.4959   48.4365 H   0  0  0  0  0  0
   21.6903    2.8613   50.0966 H   0  0  0  0  0  0
   18.3475    4.7010   47.4149 H   0  0  0  0  0  0
   19.3869    3.4013   46.8602 H   0  0  0  0  0  0
   17.0879    4.3583   49.6841 H   0  0  0  0  0  0
   17.3679    2.8556   50.5463 H   0  0  0  0  0  0
   19.7477    0.7341   49.0899 H   0  0  0  0  0  0
   21.2449    0.4423   49.9092 H   0  0  0  0  0  0
   16.0505   -0.9553   52.8796 H   0  0  0  0  0  0
   17.2466   -2.2214   53.1453 H   0  0  0  0  0  0
   17.1079   -0.8688   54.2846 H   0  0  0  0  0  0
   15.1490    2.8185   49.3844 H   0  0  0  0  0  0
   16.2024    1.5464   48.8102 H   0  0  0  0  0  0
   17.4594    1.9339   46.4433 H   0  0  0  0  0  0
   17.1848    3.4464   45.6231 H   0  0  0  0  0  0
   15.1273    2.6395   46.8601 H   0  0  0  0  0  0
   15.6549    4.2156   47.4055 H   0  0  0  0  0  0
   18.6357    2.0798   48.7016 H   0  0  0  0  0  0
  1  2  2  0  0  0
  1  3  1  0  0  0
  1  4  1  0  0  0
  2  5  1  0  0  0
  2  7  1  0  0  0
  3  6  1  0  0  0
  3 11  2  0  0  0
  4  8  2  0  0  0
  4 32  1  0  0  0
  5 14  2  0  0  0
  6  9  2  0  0  0
  6 33  1  0  0  0
  7 15  1  0  0  0
  7 34  1  0  0  0
  8  9  1  0  0  0
  8 21  1  0  0  0
  9 22  1  0  0  0
 10 12  2  0  0  0
 10 16  1  0  0  0
 10 18  1  0  0  0
 11 14  1  0  0  0
 12 15  1  0  0  0
 12 35  1  0  0  0
 13 23  1  0  0  0
 13 25  1  0  0  0
 13 26  1  0  0  0
 13 58  1  0  0  0
 14 36  1  0  0  0
 15 19  2  0  0  0
 16 17  2  0  0  0
 16 20  1  0  0  0
 17 19  1  0  0  0
 17 37  1  0  0  0
 19 38  1  0  0  0
 21 27  1  0  0  0
 22 28  1  0  0  0
 23 24  1  0  0  0
 23 39  1  0  0  0
 23 40  1  0  0  0
 24 27  1  0  0  0
 24 41  1  0  0  0
 24 42  1  0  0  0
 25 30  1  0  0  0
 25 43  1  0  0  0
 25 44  1  0  0  0
 26 29  1  0  0  0
 26 45  1  0  0  0
 26 46  1  0  0  0
 27 47  1  0  0  0
 27 48  1  0  0  0
 28 49  1  0  0  0
 28 50  1  0  0  0
 28 51  1  0  0  0
 29 31  1  0  0  0
 29 52  1  0  0  0
 29 53  1  0  0  0
 30 31  1  0  0  0
 30 54  1  0  0  0
 30 55  1  0  0  0
 31 56  1  0  0  0
 31 57  1  0  0  0
M  CHG  1  13   1
M  END
> <s_m_entry_id>
361

> <s_m_entry_name>
pocket_pv.172

> <s_m_Source_Path>
/home/bortolaa/Project/GT/mario-master/docking/set505protein_struct_1_site_1_set505ligs_train

> <s_m_Source_File>
pocket_pv.maegz

> <i_m_Source_File_Index>
172

> <From>
www.bindingDB.org

> <BindingDB Reactant_set_id>
50733022

> <Ligand InChI>
InChI=1S/C23H26ClFN4O2/c1-30-21-14-20-17(13-22(21)31-11-5-10-29-8-3-2-4-9-29)23(27-15-26-20)28-16-6-7-19(25)18(24)12-16/h6-7,12-15H,2-5,8-11H2,1H3,(H,26,27,28)

> <Ligand InChI Key>
IFIRBZOPPUFQRQ-UHFFFAOYSA-N

> <BindingDB MonomerID>
50102072

> <BindingDB Ligand Name>
(3-Chloro-4-fluoro-phenyl)-[7-methoxy-6-(3-piperidin-1-yl-propoxy)-quinazolin-4-yl]-amine::CHEMBL291514

> <Target Name Assigned by Curator or DataSource>
Epidermal growth factor receptor

> <Target Source Organism According to Curator or DataSource>
Homo sapiens

> <Ki (nM)>


> <Kd (nM)>


> <EC50 (nM)>


> <kon (M-1-s-1)>


> <koff (s-1)>


> <pH>


> <Temp C>


> <Curation/DataSource>
ChEMBL

> <Article DOI>
10.1016/s0960-894x(01)00344-4

> <PubChem AID>


> <Patent Number>


> <Authors>
Barker, AJ; Gibson, KH; Grundy, W; Godfrey, AA; Barlow, JJ; Healy, MP; Woodburn, JR; Ashton, SE; Curry, BJ; Scarlett, L; Henthorn, L; Richards, L

> <Institution>
AstraZeneca

> <Link to Ligand in BindingDB>
http://www.bindingdb.org/bind/chemsearch/marvin/MolStructure.jsp?monomerid=50102072

> <Link to Ligand-Target Pair in BindingDB>
http://www.bindingdb.org/jsp/dbsearch/PrimarySearch_ki.jsp?energyterm=kJ/mole&tag=r21&monomerid=50102072&enzyme=Epidermal+growth+factor+receptor&column=ki&startPg=0&Increment=50&submit=Search

> <Ligand HET ID in PDB>


> <PDB ID(s) for Ligand-Target Complex>


> <PubChem CID>
19077486

> <PubChem SID>
103998629

> <ChEBI ID of Ligand>


> <ChEMBL ID of Ligand>
CHEMBL291514

> <DrugBank ID of Ligand>


> <IUPHAR_GRAC ID of Ligand>


> <KEGG ID of Ligand>


> <ZINC ID of Ligand>
ZINC01893563

> <Number of Protein Chains in Target (>
1

> <BindingDB Target Chain Sequence>
MRPSGTAGAALLALLAALCPASRALEEKKVCQGTSNKLTQLGTFEDHFLSLQRMFNNCEVVLGNLEITYVQRNYDLSFLKTIQEVAGYVLIALNTVERIPLENLQIIRGNMYYENSYALAVLSNYDANKTGLKELPMRNLQEILHGAVRFSNNPALCNVESIQWRDIVSSDFLSNMSMDFQNHLGSCQKCDPSCPNGSCWGAGEENCQKLTKIICAQQCSGRCRGKSPSDCCHNQCAAGCTGPRESDCLVCRKFRDEATCKDTCPPLMLYNPTTYQMDVNPEGKYSFGATCVKKCPRNYVVTDHGSCVRACGADSYEMEEDGVRKCKKCEGPCRKVCNGIGIGEFKDSLSINATNIKHFKNCTSISGDLHILPVAFRGDSFTHTPPLDPQELDILKTVKEITGFLLIQAWPENRTDLHAFENLEIIRGRTKQHGQFSLAVVSLNITSLGLRSLKEISDGDVIISGNKNLCYANTINWKKLFGTSGQKTKIISNRGENSCKATGQVCHALCSPEGCWGPEPRDCVSCRNVSRGRECVDKCNLLEGEPREFVENSECIQCHPECLPQAMNITCTGRGPDNCIQCAHYIDGPHCVKTCPAGVMGENNTLVWKYADAGHVCHLCHPNCTYGCTGPGLEGCPTNGPKIPSIATGMVGALLLLLVVALGIGLFMRRRHIVRKRTLRRLLQERELVEPLTPSGEAPNQALLRILKETEFKKIKVLGSGAFGTVYKGLWIPEGEKVKIPVAIKELREATSPKANKEILDEAYVMASVDNPHVCRLLGICLTSTVQLITQLMPFGCLLDYVREHKDNIGSQYLLNWCVQIAKGMNYLEDRRLVHRDLAARNVLVKTPQHVKITDFGLAKLLGAEEKEYHAEGGKVPIKWMALESILHRIYTHQSDVWSYGVTVWELMTFGSKPYDGIPASEISSILEKGERLPQPPICTIDVYMIMVKCWMIDADSRPKFRELIIEFSKMARDPQRYLVIQGDERMHLPSPTDSNFYRALMDEEDMDDVVDADEYLIPQQGFFSSPSTSRTPLLSSLSATSNNSTVACIDRNGLQSCPIKEDSFLQRYSSDPTGALTEDSIDDTFLPVPEYINQSVPKRPAGSVQNPVYHNQPLNPAPSRDPHYQDPHSTAVGNPEYLNTVQPTCVNSTFDSPAHWAQKGSHQISLDNPDYQQDFFPKEAKPNGIFKGSTAENAEYLRVAPQSSEFIGA

> <PDB ID(s) of Target Chain>
1IVO,1M14,1M17,1MOX,1XKK,1Z9I,2GS2,2GS6,2ITW,2ITX,2ITY,2J5E,2J5F,2J6M,2RF9,2RGP,3B2V,3BEL,3GOP,3POZ,3QWQ,3VJO,3W2O,3W2P,3W2Q,3W2R,3W2S,3W32,3W33,4G5J,4I23,4JQ7,4JQ8,4JR3,4JRV,4KRO,4LI5,4RJ4,4RJ5,4RJ6,4RJ7,4RJ8,4TKS,4UIP,4UV7,4WKQ,4WRG,4ZAU,5C8K,5C8M,5C8N,5CAL,5CAN,5CAO,5CAP,5CAQ,5CAS,5CAU,5CAV,5EDP,5EDQ,5EDR,5EM5,5EM6,5EM7,5EM8,5FED,5GNK,5HCX,5HCY,5HCZ,5HIB,5HIC,5UGB,5WB7,5WB8,5Y25,6S89,6S8A

> <UniProt (SwissProt) Recommended Name of Target Chain>
Epidermal growth factor receptor

> <UniProt (SwissProt) Entry Name of Target Chain>
EGFR_HUMAN

> <UniProt (SwissProt) Primary ID of Target Chain>
P00533

> <UniProt (SwissProt) Secondary ID(s) of Target Chain>
O00688,O00732,P06268,Q14225,Q68GS5,Q92795,Q9BZS2,Q9GZX1,Q9H2C9,Q9H3C9,Q9UMD7,Q9UMD8,Q9UMG5

> <UniProt (SwissProt) Alternative ID(s) of Target Chain>


> <UniProt (TrEMBL) Submitted Name of Target Chain>


> <UniProt (TrEMBL) Entry Name of Target Chain>


> <UniProt (TrEMBL) Primary ID of Target Chain>


> <UniProt (TrEMBL) Secondary ID(s) of Target Chain>


> <UniProt (TrEMBL) Alternative ID(s) of Target Chain>


> <training label>
7.10237

> <i_lp_mmshare_version>
54117

> <s_epik_input>
RmMxW2NIXVtjSF1jKFtjSF1jMUNsKVtOSF1jMm5bY0hdbmMoYzIzKVtjSF1jKE9bQ0gzXSljKFtjSF0zKU9bQ0gyXVtDSDJdW0NIMl1ONFtDSDJdW0NIMl1bQ0gyXVtDSDJdW0NIMl00

> <s_epik_cmdline>
J2VwaWtfcHl0aG9uJywgJy1waHQnLCAnMC4xJywgJy1waCcsICc3LjQnLCAnLXRuJywgJzgnLCAnLW1hJywgJzIwMCcsICctaW1hZScsICc8aW5maWxlLm1hZT4nLCAnLW9tYWUnLCAnPG91dGZpbGUubWFlPic=

> <r_lp_tautomer_probability>
1

> <r_epik_Ionization_Penalty>
  0.0059

> <r_epik_Ionization_Penalty_Charging>
  0.0054

> <r_epik_Ionization_Penalty_Neutral>
  0.0005

> <r_epik_State_Penalty>
  0.0000

> <r_epik_Charging_Adjusted_Penalty>
0.0053597653437849

> <i_epik_Tot_Q>
1

> <i_epik_Tot_abs_Q>
1

> <i_f3d_flags>
0

> <s_lp_Force_Field>
OPLS_2005

> <r_lp_Energy>
32.959883

> <b_lp_Chiralities_Consistent>
1

> <s_lp_Variant>
BindingDB_50102072_mol_1-1

> <s_i_glide_gridfile>
struct_1_site_1

> <i_i_glide_lignum>
172

> <i_i_glide_rotatable_bonds>
8

> <r_i_docking_score>
-7.1368800935852

> <r_i_glide_ligand_efficiency>
-0.230221938502748

> <r_i_glide_ligand_efficiency_sa>
-0.723214742540738

> <r_i_glide_ligand_efficiency_ln>
-1.60958518021116

> <r_i_glide_gscore>
-7.1368800935852

> <r_i_glide_lipo>
-2.98253201731557

> <r_i_glide_hbond>
-0.32

> <r_i_glide_metal>
0

> <r_i_glide_rewards>
-1.51286869723309

> <r_i_glide_evdw>
-42.5253562927246

> <r_i_glide_ecoul>
-4.88315057754517

> <r_i_glide_erotb>
0.603810935512166

> <r_i_glide_esite>
-0.0665499132806979

> <r_i_glide_emodel>
-52.6662710943489

> <r_i_glide_energy>
-47.4085068702698

> <r_i_glide_einternal>
7.74494743347168

> <i_i_glide_confnum>
98

> <i_i_glide_posenum>
65

> <r_i_glide_eff_state_penalty>
0

> <IC50 (nM)>
79

> <PMID>
11459659

> <r_glide_shape_similarity>
0.832483410835266

> <s_m_subgroup_title>
505 training

> <s_m_subgroupid>
pocket_pv

> <b_m_subgroup_collapsed>
0

$$$$
BindingDB_50144606_mol_1
                    3D
 Schrodinger Suite 2021-2.
 44 47  0  0  1  0            999 V2000
   25.0544    0.7392   53.0425 N   0  0  0  0  0  0
   26.5136    0.8539   52.7821 C   0  0  1  0  0  0
   24.3767   -0.0940   53.9041 C   0  0  0  0  0  0
   23.0077    0.0826   53.5970 C   0  0  0  0  0  0
   22.8290    1.0623   52.6460 N   0  0  0  0  0  0
   27.2161    1.6002   53.8846 C   0  0  1  0  0  0
   24.0857    1.4031   52.3959 C   0  0  0  0  0  0
   27.0603   -0.4223   52.7096 O   0  0  0  0  0  0
   28.4866    0.8057   54.0380 C   0  0  1  0  0  0
   28.0190   -0.6021   53.7368 C   0  0  2  0  0  0
   22.1280   -0.7564   54.2937 C   0  0  0  0  0  0
   24.8682   -0.9469   54.8414 N   0  0  0  0  0  0
   22.5846   -1.6187   55.2172 N   0  0  0  0  0  0
   20.4083   -0.7410   54.1050 S   0  0  0  0  0  0
   23.8956   -1.6469   55.4357 C   0  0  0  0  0  0
   27.5634    2.9065   53.5281 O   0  0  0  0  0  0
   29.4887    1.1671   53.1101 O   0  0  0  0  0  0
   19.9651    0.0034   52.5112 C   0  0  0  0  0  0
   15.6523   -0.0659   52.4355 C   0  0  0  0  0  0
   18.4666   -0.1047   52.3516 C   0  0  0  0  0  0
   29.1434   -1.5440   53.3050 C   0  0  0  0  0  0
   13.5937    0.0274   52.7120 I   0  0  0  0  0  0
   16.3494    0.9544   51.7746 C   0  0  0  0  0  0
   16.3507   -1.1532   52.9673 C   0  0  0  0  0  0
   17.7550    0.9384   51.7387 C   0  0  0  0  0  0
   17.7488   -1.1850   52.9023 C   0  0  0  0  0  0
   28.7174   -2.8777   53.3738 O   0  0  0  0  0  0
   26.6002    1.3347   51.8087 H   0  0  0  0  0  0
   26.6184    1.5611   54.7933 H   0  0  0  0  0  0
   24.3094    2.1494   51.6458 H   0  0  0  0  0  0
   28.8989    0.8880   55.0435 H   0  0  0  0  0  0
   27.5163   -0.9866   54.6183 H   0  0  0  0  0  0
   24.2245   -2.3570   56.1724 H   0  0  0  0  0  0
   26.7921    3.4393   53.3773 H   0  0  0  0  0  0
   29.8962    1.9812   53.3820 H   0  0  0  0  0  0
   20.2421    1.0566   52.5262 H   0  0  0  0  0  0
   20.4878   -0.4663   51.6766 H   0  0  0  0  0  0
   29.9999   -1.4357   53.9674 H   0  0  0  0  0  0
   29.4927   -1.2998   52.3023 H   0  0  0  0  0  0
   15.8090    1.7919   51.3572 H   0  0  0  0  0  0
   15.8126   -1.9654   53.4309 H   0  0  0  0  0  0
   18.2858    1.7715   51.2992 H   0  0  0  0  0  0
   18.2445   -2.0326   53.3469 H   0  0  0  0  0  0
   28.3526   -3.0437   54.2330 H   0  0  0  0  0  0
  1  2  1  0  0  0
  1  3  1  0  0  0
  1  7  1  0  0  0
  2  6  1  0  0  0
  2  8  1  0  0  0
  2 28  1  0  0  0
  3  4  2  0  0  0
  3 12  1  0  0  0
  4 11  1  0  0  0
  4  5  1  0  0  0
  5  7  2  0  0  0
  6  9  1  0  0  0
  6 16  1  0  0  0
  6 29  1  0  0  0
  7 30  1  0  0  0
  8 10  1  0  0  0
  9 17  1  0  0  0
  9 10  1  0  0  0
  9 31  1  0  0  0
 10 21  1  0  0  0
 10 32  1  0  0  0
 11 14  1  0  0  0
 11 13  2  0  0  0
 12 15  2  0  0  0
 13 15  1  0  0  0
 14 18  1  0  0  0
 15 33  1  0  0  0
 16 34  1  0  0  0
 17 35  1  0  0  0
 18 20  1  0  0  0
 18 36  1  0  0  0
 18 37  1  0  0  0
 19 24  2  0  0  0
 19 22  1  0  0  0
 19 23  1  0  0  0
 20 25  1  0  0  0
 20 26  2  0  0  0
 21 27  1  0  0  0
 21 38  1  0  0  0
 21 39  1  0  0  0
 23 25  2  0  0  0
 23 40  1  0  0  0
 24 26  1  0  0  0
 24 41  1  0  0  0
 25 42  1  0  0  0
 26 43  1  0  0  0
 27 44  1  0  0  0
M  END
> <s_m_entry_id>
362

> <s_m_entry_name>
pocket_pv.173

> <s_m_Source_Path>
/home/bortolaa/Project/GT/mario-master/docking/set505protein_struct_1_site_1_set505ligs_train

> <s_m_Source_File>
pocket_pv.maegz

> <i_m_Source_File_Index>
173

> <From>
www.bindingDB.org

> <BindingDB Reactant_set_id>
50463846

> <Ligand InChI>
InChI=1S/C29H23ClN4O3/c1-36-26-15-23-25(16-27(26)37-17-19-7-3-2-4-8-19)31-18-32-28(23)33-20-11-13-21(14-12-20)34-29(35)22-9-5-6-10-24(22)30/h2-16,18H,17H2,1H3,(H,34,35)(H,31,32,33)

> <Ligand InChI Key>
JASSTMZJDQXQFP-UHFFFAOYSA-N

> <BindingDB MonomerID>
50144606

> <BindingDB Ligand Name>
CHEMBL3759203

> <Target Name Assigned by Curator or DataSource>
Epidermal growth factor receptor

> <Target Source Organism According to Curator or DataSource>
Homo sapiens

> <Ki (nM)>


> <IC50 (nM)>
730

> <Kd (nM)>


> <EC50 (nM)>


> <kon (M-1-s-1)>


> <koff (s-1)>


> <pH>


> <Temp C>


> <Curation/DataSource>
ChEMBL

> <Article DOI>
10.1016/j.ejmech.2015.12.032

> <PubChem AID>


> <Patent Number>


> <Authors>
Zhang, HQ; Gong, FH; Li, CG; Zhang, C; Wang, YJ; Xu, YG; Sun, LP

> <Institution>
China Pharmaceutical University

> <Link to Ligand in BindingDB>
http://www.bindingdb.org/bind/chemsearch/marvin/MolStructure.jsp?monomerid=50144606

> <Link to Ligand-Target Pair in BindingDB>
http://www.bindingdb.org/jsp/dbsearch/PrimarySearch_ki.jsp?energyterm=kJ/mole&tag=r21&monomerid=50144606&enzyme=Epidermal+growth+factor+receptor&column=ki&startPg=0&Increment=50&submit=Search

> <Ligand HET ID in PDB>


> <PDB ID(s) for Ligand-Target Complex>


> <PubChem CID>
44312149

> <PubChem SID>
104033684

> <ChEBI ID of Ligand>


> <ChEMBL ID of Ligand>
CHEMBL3759203

> <DrugBank ID of Ligand>


> <IUPHAR_GRAC ID of Ligand>


> <KEGG ID of Ligand>


> <ZINC ID of Ligand>
ZINC36332177

> <Number of Protein Chains in Target (>
1

> <BindingDB Target Chain Sequence>
MRPSGTAGAALLALLAALCPASRALEEKKVCQGTSNKLTQLGTFEDHFLSLQRMFNNCEVVLGNLEITYVQRNYDLSFLKTIQEVAGYVLIALNTVERIPLENLQIIRGNMYYENSYALAVLSNYDANKTGLKELPMRNLQEILHGAVRFSNNPALCNVESIQWRDIVSSDFLSNMSMDFQNHLGSCQKCDPSCPNGSCWGAGEENCQKLTKIICAQQCSGRCRGKSPSDCCHNQCAAGCTGPRESDCLVCRKFRDEATCKDTCPPLMLYNPTTYQMDVNPEGKYSFGATCVKKCPRNYVVTDHGSCVRACGADSYEMEEDGVRKCKKCEGPCRKVCNGIGIGEFKDSLSINATNIKHFKNCTSISGDLHILPVAFRGDSFTHTPPLDPQELDILKTVKEITGFLLIQAWPENRTDLHAFENLEIIRGRTKQHGQFSLAVVSLNITSLGLRSLKEISDGDVIISGNKNLCYANTINWKKLFGTSGQKTKIISNRGENSCKATGQVCHALCSPEGCWGPEPRDCVSCRNVSRGRECVDKCNLLEGEPREFVENSECIQCHPECLPQAMNITCTGRGPDNCIQCAHYIDGPHCVKTCPAGVMGENNTLVWKYADAGHVCHLCHPNCTYGCTGPGLEGCPTNGPKIPSIATGMVGALLLLLVVALGIGLFMRRRHIVRKRTLRRLLQERELVEPLTPSGEAPNQALLRILKETEFKKIKVLGSGAFGTVYKGLWIPEGEKVKIPVAIKELREATSPKANKEILDEAYVMASVDNPHVCRLLGICLTSTVQLITQLMPFGCLLDYVREHKDNIGSQYLLNWCVQIAKGMNYLEDRRLVHRDLAARNVLVKTPQHVKITDFGLAKLLGAEEKEYHAEGGKVPIKWMALESILHRIYTHQSDVWSYGVTVWELMTFGSKPYDGIPASEISSILEKGERLPQPPICTIDVYMIMVKCWMIDADSRPKFRELIIEFSKMARDPQRYLVIQGDERMHLPSPTDSNFYRALMDEEDMDDVVDADEYLIPQQGFFSSPSTSRTPLLSSLSATSNNSTVACIDRNGLQSCPIKEDSFLQRYSSDPTGALTEDSIDDTFLPVPEYINQSVPKRPAGSVQNPVYHNQPLNPAPSRDPHYQDPHSTAVGNPEYLNTVQPTCVNSTFDSPAHWAQKGSHQISLDNPDYQQDFFPKEAKPNGIFKGSTAENAEYLRVAPQSSEFIGA

> <PDB ID(s) of Target Chain>
1IVO,1M14,1M17,1MOX,1XKK,1Z9I,2GS2,2GS6,2ITW,2ITX,2ITY,2J5E,2J5F,2J6M,2RF9,2RGP,3B2V,3BEL,3GOP,3POZ,3QWQ,3VJO,3W2O,3W2P,3W2Q,3W2R,3W2S,3W32,3W33,4G5J,4I23,4JQ7,4JQ8,4JR3,4JRV,4KRO,4LI5,4RJ4,4RJ5,4RJ6,4RJ7,4RJ8,4TKS,4UIP,4UV7,4WKQ,4WRG,4ZAU,5C8K,5C8M,5C8N,5CAL,5CAN,5CAO,5CAP,5CAQ,5CAS,5CAU,5CAV,5EDP,5EDQ,5EDR,5EM5,5EM6,5EM7,5EM8,5FED,5GNK,5HCX,5HCY,5HCZ,5HIB,5HIC,5UGB,5WB7,5WB8,5Y25,6S89,6S8A

> <UniProt (SwissProt) Recommended Name of Target Chain>
Epidermal growth factor receptor

> <UniProt (SwissProt) Entry Name of Target Chain>
EGFR_HUMAN

> <UniProt (SwissProt) Primary ID of Target Chain>
P00533

> <UniProt (SwissProt) Secondary ID(s) of Target Chain>
O00688,O00732,P06268,Q14225,Q68GS5,Q92795,Q9BZS2,Q9GZX1,Q9H2C9,Q9H3C9,Q9UMD7,Q9UMD8,Q9UMG5

> <UniProt (SwissProt) Alternative ID(s) of Target Chain>


> <UniProt (TrEMBL) Submitted Name of Target Chain>


> <UniProt (TrEMBL) Entry Name of Target Chain>


> <UniProt (TrEMBL) Primary ID of Target Chain>


> <UniProt (TrEMBL) Secondary ID(s) of Target Chain>


> <UniProt (TrEMBL) Alternative ID(s) of Target Chain>


> <training label>
6.13668

> <i_lp_mmshare_version>
54117

> <s_epik_input>
W09IXVtDSDJdW0NASF0oTzEpW0NAQEhdKFtPSF0pW0NAQEhdKFtPSF0pW0NAQEhdMW4yW2NIXW5jKGMyMyljKG5bY0hdbjMpU1tDSDJdYyhbY0hdW2NIXTQpW2NIXVtjSF1jNEk=

> <s_epik_cmdline>
J2VwaWtfcHl0aG9uJywgJy1waHQnLCAnMC4xJywgJy1waCcsICc3LjQnLCAnLXRuJywgJzgnLCAnLW1hJywgJzIwMCcsICctaW1hZScsICc8aW5maWxlLm1hZT4nLCAnLW9tYWUnLCAnPG91dGZpbGUubWFlPic=

> <r_lp_tautomer_probability>
1

> <r_epik_Ionization_Penalty>
  0.0001

> <r_epik_Ionization_Penalty_Charging>
  0.0000

> <r_epik_Ionization_Penalty_Neutral>
  0.0001

> <r_epik_State_Penalty>
  0.0000

> <r_epik_Charging_Adjusted_Penalty>
0

> <i_epik_Tot_Q>
0

> <i_epik_Tot_abs_Q>
0

> <i_f3d_flags>
0

> <s_lp_Force_Field>
OPLS_2005

> <r_lp_Energy>
41.982673

> <b_lp_Chiralities_Consistent>
1

> <s_lp_Variant>
BindingDB_50144606_mol_1-4

> <s_i_glide_gridfile>
struct_1_site_1

> <i_i_glide_lignum>
83

> <i_i_glide_rotatable_bonds>
8

> <r_i_docking_score>
-7.13518110010197

> <r_i_glide_ligand_efficiency>
-0.264265966670443

> <r_i_glide_ligand_efficiency_sa>
-0.792797899140352

> <r_i_glide_ligand_efficiency_ln>
-1.66095252744981

> <r_i_glide_gscore>
-7.13518110010197

> <r_i_glide_lipo>
-2.44806066962363

> <r_i_glide_hbond>
0

> <r_i_glide_metal>
0

> <r_i_glide_rewards>
-1.98545047183844

> <r_i_glide_evdw>
-41.8823165893555

> <r_i_glide_ecoul>
-6.76947402954102

> <r_i_glide_erotb>
0.407866975259027

> <r_i_glide_esite>
0

> <r_i_glide_emodel>
-43.1927704948627

> <r_i_glide_energy>
-48.6517906188965

> <r_i_glide_einternal>
5.11284255981445

> <i_i_glide_confnum>
59

> <i_i_glide_posenum>
177

> <r_i_glide_eff_state_penalty>
0

> <PMID>
26826581

> <s_epik_Chemistry_Notes>
This compound contains an acetal/aminal-like group ( X-CH(R)-Y where X, Y are N, S, or O) that may be acid/base labile, releasing an aldehyde.

> <r_glide_shape_similarity>
0.766188979148865

> <s_m_subgroup_title>
505 training

> <s_m_subgroupid>
pocket_pv

> <b_m_subgroup_collapsed>
0

$$$$
Iressa
                    3D
 Schrodinger Suite 2021-2.
 55 58  0  0  1  0            999 V2000
   21.4985    0.6234   52.4547 C   0  0  0  0  0  0
   19.3159   -0.4111   52.8347 C   0  0  0  0  0  0
   19.8954   -1.2063   53.8607 C   0  0  0  0  0  0
   22.0647   -0.1635   53.4925 C   0  0  0  0  0  0
   21.2663   -1.1118   54.1864 C   0  0  0  0  0  0
   23.4339   -0.0877   53.8665 C   0  0  0  0  0  0
   23.1002   -1.7317   55.4187 C   0  0  0  0  0  0
   23.9408   -0.8840   54.8331 N   0  0  0  0  0  0
   21.8057   -1.8993   55.1463 N   0  0  0  0  0  0
   24.2859    0.8562   53.2672 N   0  0  0  0  0  0
   25.6851    0.9499   53.3392 C   0  0  0  0  0  0
   27.6769    2.3699   53.4320 C   0  0  0  0  0  0
   26.2762    2.2341   53.3686 C   0  0  0  0  0  0
   26.5116   -0.2009   53.3279 C   0  0  0  0  0  0
   28.4906    1.2164   53.4608 C   0  0  0  0  0  0
   27.9135   -0.0702   53.3853 C   0  0  0  0  0  0
   20.1348    0.4661   52.0872 C   0  0  0  0  0  0
   19.5308    1.0847   51.0036 O   0  0  0  0  0  0
   17.9769   -0.4525   52.4797 O   0  0  0  0  0  0
   20.3344    1.6326   49.9595 C   0  0  0  0  0  0
   17.0659   -1.1714   53.3017 C   0  0  0  0  0  0
   29.8304    1.3312   53.5848 F   0  0  0  0  0  0
   28.9076   -1.4890   53.3746 Cl  0  0  0  0  0  0
   20.5639    3.1231   50.2671 C   0  0  0  0  0  0
   21.9729    3.6429   49.8848 C   0  0  0  0  0  0
   21.9503    7.4039   50.7026 C   0  0  0  0  0  0
   24.1579    6.5606   51.1131 C   0  0  0  0  0  0
   23.7782    5.2174   50.4266 C   0  0  0  0  0  0
   21.5577    6.0684   50.0145 C   0  0  0  0  0  0
   22.3365    4.9215   50.5287 N   0  0  0  0  0  0
   23.3647    7.6326   50.5740 O   0  0  0  0  0  0
   22.1190    1.3148   51.9090 H   0  0  0  0  0  0
   19.2924   -1.9044   54.4221 H   0  0  0  0  0  0
   23.5131   -2.3801   56.1735 H   0  0  0  0  0  0
   23.8152    1.6360   52.8316 H   0  0  0  0  0  0
   28.1251    3.3534   53.4818 H   0  0  0  0  0  0
   25.6636    3.1257   53.3585 H   0  0  0  0  0  0
   26.0795   -1.1914   53.2676 H   0  0  0  0  0  0
   19.8001    1.5277   49.0100 H   0  0  0  0  0  0
   21.2689    1.0784   49.8442 H   0  0  0  0  0  0
   16.0472   -0.9846   52.9659 H   0  0  0  0  0  0
   17.2480   -2.2453   53.2292 H   0  0  0  0  0  0
   17.1367   -0.8710   54.3483 H   0  0  0  0  0  0
   20.4431    3.2716   51.3402 H   0  0  0  0  0  0
   19.7820    3.7198   49.8017 H   0  0  0  0  0  0
   22.0624    3.7305   48.8006 H   0  0  0  0  0  0
   22.6983    2.8841   50.1864 H   0  0  0  0  0  0
   21.6754    7.3841   51.7601 H   0  0  0  0  0  0
   21.4109    8.2351   50.2485 H   0  0  0  0  0  0
   23.9976    6.4978   52.1906 H   0  0  0  0  0  0
   25.2185    6.7737   50.9666 H   0  0  0  0  0  0
   24.0653    5.2625   49.3745 H   0  0  0  0  0  0
   24.3560    4.4090   50.8803 H   0  0  0  0  0  0
   20.4937    5.9010   50.1704 H   0  0  0  0  0  0
   21.7081    6.1622   48.9356 H   0  0  0  0  0  0
  1  4  2  0  0  0
  1 17  1  0  0  0
  1 32  1  0  0  0
  2  3  1  0  0  0
  2 17  2  0  0  0
  2 19  1  0  0  0
  3  5  2  0  0  0
  3 33  1  0  0  0
  4  5  1  0  0  0
  4  6  1  0  0  0
  5  9  1  0  0  0
  6  8  2  0  0  0
  6 10  1  0  0  0
  7  8  1  0  0  0
  7  9  2  0  0  0
  7 34  1  0  0  0
 10 11  1  0  0  0
 10 35  1  0  0  0
 11 13  2  0  0  0
 11 14  1  0  0  0
 12 13  1  0  0  0
 12 15  2  0  0  0
 12 36  1  0  0  0
 13 37  1  0  0  0
 14 16  2  0  0  0
 14 38  1  0  0  0
 15 16  1  0  0  0
 15 22  1  0  0  0
 16 23  1  0  0  0
 17 18  1  0  0  0
 18 20  1  0  0  0
 19 21  1  0  0  0
 20 24  1  0  0  0
 20 39  1  0  0  0
 20 40  1  0  0  0
 21 41  1  0  0  0
 21 42  1  0  0  0
 21 43  1  0  0  0
 24 25  1  0  0  0
 24 44  1  0  0  0
 24 45  1  0  0  0
 25 30  1  0  0  0
 25 46  1  0  0  0
 25 47  1  0  0  0
 26 29  1  0  0  0
 26 31  1  0  0  0
 26 48  1  0  0  0
 26 49  1  0  0  0
 27 28  1  0  0  0
 27 31  1  0  0  0
 27 50  1  0  0  0
 27 51  1  0  0  0
 28 30  1  0  0  0
 28 52  1  0  0  0
 28 53  1  0  0  0
 29 30  1  0  0  0
 29 54  1  0  0  0
 29 55  1  0  0  0
M  END
> <s_m_entry_id>
363

> <s_m_entry_name>
pocket_pv.174

> <s_m_Source_Path>
/home/bortolaa/Project/GT/mario-master/docking/set505protein_struct_1_site_1_set505ligs_train

> <s_m_Source_File>
pocket_pv.maegz

> <i_m_Source_File_Index>
174

> <From>
www.bindingDB.org

> <BindingDB Reactant_set_id>
406573

> <Ligand InChI>
InChI=1S/C22H24ClFN4O3/c1-29-20-13-19-16(12-21(20)31-8-2-5-28-6-9-30-10-7-28)22(26-14-25-19)27-15-3-4-18(24)17(23)11-15/h3-4,11-14H,2,5-10H2,1H3,(H,25,26,27)

> <Ligand InChI Key>
XGALLCVXEZPNRQ-UHFFFAOYSA-N

> <BindingDB MonomerID>
5447

> <BindingDB Ligand Name>
CHEMBL939::GEFITINIB::Iressa::N-(3-Chloro-4-fluorophenyl)-7-methoxy-6-[3-(4-morpholinyl)propoxy]-4-quinazolinamine::N-(3-chloro-4-fluorophenyl)-7-methoxy-6-[3-(morpholin-4-yl)propoxy]quinazolin-4-amine::US10106508, Gefitinib::US9416123, Gefitinib::US9730934, Gefitinib::US9783524, Gefitinib::ZD1839::cid_123631

> <Target Name Assigned by Curator or DataSource>
Epidermal growth factor receptor

> <Target Source Organism According to Curator or DataSource>
Homo sapiens

> <Ki (nM)>


> <IC50 (nM)>
92300

> <Kd (nM)>


> <EC50 (nM)>


> <kon (M-1-s-1)>


> <koff (s-1)>


> <Temp C>


> <Curation/DataSource>
Curated from the literature by BindingDB

> <Article DOI>
10.3109/14756360903169485

> <PubChem AID>


> <Patent Number>


> <Authors>
Garofalo, A; Goossens, L; Lemoine, A; Farce, A; Arlot, Y; Depreux, P

> <Institution>
Université Lille Nord de France

> <Link to Ligand in BindingDB>
http://www.bindingdb.org/bind/chemsearch/marvin/MolStructure.jsp?monomerid=5447

> <Link to Ligand-Target Pair in BindingDB>
http://www.bindingdb.org/jsp/dbsearch/PrimarySearch_ki.jsp?energyterm=kJ/mole&tag=r21&monomerid=5447&enzyme=Epidermal+growth+factor+receptor&column=ki&startPg=0&Increment=50&submit=Search

> <Ligand HET ID in PDB>


> <PDB ID(s) for Ligand-Target Complex>
2ITO,2ITY,2ITZ

> <PubChem CID>
123631

> <PubChem SID>
8035066

> <ChEMBL ID of Ligand>
CHEMBL939

> <DrugBank ID of Ligand>
DB00317

> <KEGG ID of Ligand>


> <ZINC ID of Ligand>
ZINC19632614

> <Number of Protein Chains in Target (>
1

> <BindingDB Target Chain Sequence>
MRPSGTAGAALLALLAALCPASRALEEKKVCQGTSNKLTQLGTFEDHFLSLQRMFNNCEVVLGNLEITYVQRNYDLSFLKTIQEVAGYVLIALNTVERIPLENLQIIRGNMYYENSYALAVLSNYDANKTGLKELPMRNLQEILHGAVRFSNNPALCNVESIQWRDIVSSDFLSNMSMDFQNHLGSCQKCDPSCPNGSCWGAGEENCQKLTKIICAQQCSGRCRGKSPSDCCHNQCAAGCTGPRESDCLVCRKFRDEATCKDTCPPLMLYNPTTYQMDVNPEGKYSFGATCVKKCPRNYVVTDHGSCVRACGADSYEMEEDGVRKCKKCEGPCRKVCNGIGIGEFKDSLSINATNIKHFKNCTSISGDLHILPVAFRGDSFTHTPPLDPQELDILKTVKEITGFLLIQAWPENRTDLHAFENLEIIRGRTKQHGQFSLAVVSLNITSLGLRSLKEISDGDVIISGNKNLCYANTINWKKLFGTSGQKTKIISNRGENSCKATGQVCHALCSPEGCWGPEPRDCVSCRNVSRGRECVDKCNLLEGEPREFVENSECIQCHPECLPQAMNITCTGRGPDNCIQCAHYIDGPHCVKTCPAGVMGENNTLVWKYADAGHVCHLCHPNCTYGCTGPGLEGCPTNGPKIPSIATGMVGALLLLLVVALGIGLFMRRRHIVRKRTLRRLLQERELVEPLTPSGEAPNQALLRILKETEFKKIKVLGSGAFGTVYKGLWIPEGEKVKIPVAIKELREATSPKANKEILDEAYVMASVDNPHVCRLLGICLTSTVQLITQLMPFGCLLDYVREHKDNIGSQYLLNWCVQIAKGMNYLEDRRLVHRDLAARNVLVKTPQHVKITDFGLAKLLGAEEKEYHAEGGKVPIKWMALESILHRIYTHQSDVWSYGVTVWELMTFGSKPYDGIPASEISSILEKGERLPQPPICTIDVYMIMVKCWMIDADSRPKFRELIIEFSKMARDPQRYLVIQGDERMHLPSPTDSNFYRALMDEEDMDDVVDADEYLIPQQGFFSSPSTSRTPLLSSLSATSNNSTVACIDRNGLQSCPIKEDSFLQRYSSDPTGALTEDSIDDTFLPVPEYINQSVPKRPAGSVQNPVYHNQPLNPAPSRDPHYQDPHSTAVGNPEYLNTVQPTCVNSTFDSPAHWAQKGSHQISLDNPDYQQDFFPKEAKPNGIFKGSTAENAEYLRVAPQSSEFIGA

> <PDB ID(s) of Target Chain>
1IVO,1M14,1M17,1MOX,1XKK,1Z9I,2GS2,2GS6,2ITW,2ITX,2ITY,2J5E,2J5F,2J6M,2RF9,2RGP,3B2V,3BEL,3GOP,3POZ,3QWQ,3VJO,3W2O,3W2P,3W2Q,3W2R,3W2S,3W32,3W33,4G5J,4I23,4JQ7,4JQ8,4JR3,4JRV,4KRO,4LI5,4RJ4,4RJ5,4RJ6,4RJ7,4RJ8,4TKS,4UIP,4UV7,4WKQ,4WRG,4ZAU,5C8K,5C8M,5C8N,5CAL,5CAN,5CAO,5CAP,5CAQ,5CAS,5CAU,5CAV,5EDP,5EDQ,5EDR,5EM5,5EM6,5EM7,5EM8,5FED,5GNK,5HCX,5HCY,5HCZ,5HIB,5HIC,5UGB,5WB7,5WB8,5Y25,6S89,6S8A

> <UniProt (SwissProt) Recommended Name of Target Chain>
Epidermal growth factor receptor

> <UniProt (SwissProt) Entry Name of Target Chain>
EGFR_HUMAN

> <UniProt (SwissProt) Primary ID of Target Chain>
P00533

> <UniProt (SwissProt) Secondary ID(s) of Target Chain>
O00688,O00732,P06268,Q14225,Q68GS5,Q92795,Q9BZS2,Q9GZX1,Q9H2C9,Q9H3C9,Q9UMD7,Q9UMD8,Q9UMG5

> <UniProt (SwissProt) Alternative ID(s) of Target Chain>


> <UniProt (TrEMBL) Submitted Name of Target Chain>


> <UniProt (TrEMBL) Entry Name of Target Chain>


> <UniProt (TrEMBL) Primary ID of Target Chain>


> <UniProt (TrEMBL) Secondary ID(s) of Target Chain>


> <UniProt (TrEMBL) Alternative ID(s) of Target Chain>


> <training label>
4.0348

> <i_lp_mmshare_version>
54117

> <s_epik_input>
W0NIMl0xW0NIMl1PW0NIMl1bQ0gyXU4xW0NIMl1bQ0gyXVtDSDJdT2MoW2NIXTIpYyhPW0NIM10pW2NIXWMoYzIzKW5bY0hdbmMzW05IXWM0W2NIXVtjSF1jKEYpYyhDbClbY0hdNA==

> <s_epik_cmdline>
J2VwaWtfcHl0aG9uJywgJy1waHQnLCAnMC4xJywgJy1waCcsICc3LjQnLCAnLXRuJywgJzgnLCAnLW1hJywgJzIwMCcsICctaW1hZScsICc8aW5maWxlLm1hZT4nLCAnLW9tYWUnLCAnPG91dGZpbGUubWFlPic=

> <r_lp_tautomer_probability>
0.999978000241998

> <r_epik_Ionization_Penalty>
  0.1968

> <r_epik_Ionization_Penalty_Charging>
  0.0000

> <r_epik_Ionization_Penalty_Neutral>
  0.1968

> <r_epik_State_Penalty>
  0.1860

> <r_epik_Charging_Adjusted_Penalty>
0.186024314191534

> <i_epik_Tot_Q>
0

> <i_epik_Tot_abs_Q>
0

> <i_f3d_flags>
0

> <s_lp_Force_Field>
OPLS_2005

> <r_lp_Energy>
39.57695

> <b_lp_Chiralities_Consistent>
1

> <s_lp_Variant>
Iressa-1

> <s_i_glide_gridfile>
struct_1_site_1

> <i_i_glide_lignum>
1

> <i_i_glide_rotatable_bonds>
8

> <r_i_docking_score>
-7.12607965808406

> <r_i_glide_ligand_efficiency>
-0.22987353735755

> <r_i_glide_ligand_efficiency_sa>
-0.722120281925195

> <r_i_glide_ligand_efficiency_ln>
-1.60714935101206

> <r_i_glide_gscore>
-7.31207965808406

> <r_i_glide_lipo>
-3.01077962514895

> <r_i_glide_hbond>
-0.32

> <r_i_glide_metal>
0

> <r_i_glide_rewards>
-1.5202128302428

> <r_i_glide_evdw>
-46.0730018615723

> <r_i_glide_ecoul>
-4.61869668960571

> <r_i_glide_erotb>
0.601444300453987

> <r_i_glide_esite>
-0.0660769066268312

> <r_i_glide_emodel>
-50.9049201348865

> <r_i_glide_energy>
-50.691698551178

> <r_i_glide_einternal>
4.33755159378052

> <i_i_glide_confnum>
153

> <i_i_glide_posenum>
287

> <r_i_glide_eff_state_penalty>
0.186

> <PMID>
20222760

> <IUPHAR_GRAC ID of Ligand>
4941

> <r_glide_shape_similarity>
0.773856520652771

> <pH>
7.5

> <ChEBI ID of Ligand>
49668

> <s_m_subgroup_title>
505 training

> <s_m_subgroupid>
pocket_pv

> <b_m_subgroup_collapsed>
0

$$$$
BindingDB_3566_mol_1
                    3D
 Schrodinger Suite 2021-2.
 36 38  0  0  1  0            999 V2000
   22.0737   -0.1746   53.5011 C   0  0  0  0  0  0
   21.2669   -1.1102   54.1803 C   0  0  0  0  0  0
   23.4384   -0.1311   53.8565 C   0  0  0  0  0  0
   23.0871   -1.7294   55.4153 C   0  0  0  0  0  0
   23.9357   -0.9065   54.8266 N   0  0  0  0  0  0
   21.7979   -1.8926   55.1377 N   0  0  0  0  0  0
   24.3188    0.7221   53.2016 N   0  0  0  0  0  0
   25.7096    0.8253   53.3117 C   0  0  0  0  0  0
   27.6367    2.3202   53.3573 C   0  0  0  0  0  0
   26.2561    2.1063   53.2437 C   0  0  0  0  0  0
   26.5712   -0.2782   53.4023 C   0  0  0  0  0  0
   28.4954    1.2148   53.4491 C   0  0  0  0  0  0
   20.1656    0.5188   52.1401 C   0  0  0  0  0  0
   19.3434   -0.3827   52.8345 C   0  0  0  0  0  0
   27.9637   -0.0857   53.4554 C   0  0  0  0  0  0
   19.9063   -1.2016   53.8394 C   0  0  0  0  0  0
   18.0249   -0.4025   52.4477 O   0  0  0  0  0  0
   17.0958   -1.0718   53.2697 C   0  0  0  0  0  0
   19.5993    1.2629   51.1364 O   0  0  0  0  0  0
   20.4033    1.5412   49.9988 C   0  0  0  0  0  0
   21.5221    0.6353   52.4928 C   0  0  0  0  0  0
   25.0658    3.5311   52.8857 Br  0  0  0  0  0  0
   23.4939   -2.3802   56.1736 H   0  0  0  0  0  0
   23.8806    1.5434   52.8101 H   0  0  0  0  0  0
   28.0311    3.3266   53.3222 H   0  0  0  0  0  0
   26.1720   -1.2817   53.4164 H   0  0  0  0  0  0
   29.5664    1.3597   53.5038 H   0  0  0  0  0  0
   28.6256   -0.9368   53.5202 H   0  0  0  0  0  0
   19.2997   -1.9095   54.3819 H   0  0  0  0  0  0
   16.0840   -0.8760   52.9079 H   0  0  0  0  0  0
   17.2551   -2.1512   53.2539 H   0  0  0  0  0  0
   17.1550   -0.7220   54.3017 H   0  0  0  0  0  0
   19.7545    1.8437   49.1763 H   0  0  0  0  0  0
   20.9602    0.6609   49.6671 H   0  0  0  0  0  0
   21.1003    2.3582   50.1946 H   0  0  0  0  0  0
   22.1428    1.3444   51.9685 H   0  0  0  0  0  0
  1  2  1  0  0  0
  1  3  2  0  0  0
  1 21  1  0  0  0
  2  6  2  0  0  0
  2 16  1  0  0  0
  3  5  1  0  0  0
  3  7  1  0  0  0
  4  5  2  0  0  0
  4  6  1  0  0  0
  4 23  1  0  0  0
  7  8  1  0  0  0
  7 24  1  0  0  0
  8 10  2  0  0  0
  8 11  1  0  0  0
  9 10  1  0  0  0
  9 12  2  0  0  0
  9 25  1  0  0  0
 10 22  1  0  0  0
 11 15  2  0  0  0
 11 26  1  0  0  0
 12 15  1  0  0  0
 12 27  1  0  0  0
 13 14  1  0  0  0
 13 19  1  0  0  0
 13 21  2  0  0  0
 14 16  2  0  0  0
 14 17  1  0  0  0
 15 28  1  0  0  0
 16 29  1  0  0  0
 17 18  1  0  0  0
 18 30  1  0  0  0
 18 31  1  0  0  0
 18 32  1  0  0  0
 19 20  1  0  0  0
 20 33  1  0  0  0
 20 34  1  0  0  0
 20 35  1  0  0  0
 21 36  1  0  0  0
M  END
> <s_m_entry_id>
364

> <s_m_entry_name>
pocket_pv.175

> <s_m_Source_Path>
/home/bortolaa/Project/GT/mario-master/docking/set505protein_struct_1_site_1_set505ligs_train

> <s_m_Source_File>
pocket_pv.maegz

> <i_m_Source_File_Index>
175

> <From>
www.bindingDB.org

> <BindingDB Reactant_set_id>
5328

> <Ligand InChI>
InChI=1S/C16H14BrN3O2/c1-21-14-7-10-13(8-15(14)22-2)18-9-19-16(10)20-12-6-4-3-5-11(12)17/h3-9H,1-2H3,(H,18,19,20)

> <Ligand InChI Key>
WNZXENIFRJQCEE-UHFFFAOYSA-N

> <BindingDB MonomerID>
3566

> <BindingDB Ligand Name>
CHEMBL92174::N-(2-bromophenyl)-6,7-dimethoxyquinazolin-4-amine::PD153035 Analog 66

> <Target Name Assigned by Curator or DataSource>
Epidermal growth factor receptor

> <Target Source Organism According to Curator or DataSource>
Homo sapiens

> <Ki (nM)>


> <Kd (nM)>


> <EC50 (nM)>


> <kon (M-1-s-1)>


> <koff (s-1)>


> <pH>


> <Temp C>


> <Curation/DataSource>
Curated from the literature by BindingDB

> <Article DOI>
10.1021/bi060184f

> <PMID>


> <PubChem AID>


> <Patent Number>


> <Authors>
Bridges, AJ; Zhou, HR; Cody, DR; Rewcastle, GW; McMichael, A; Showalter, HH; Fry, DW; Kraker, AJ; Denny, WA

> <Institution>
Parke-Davis Pharmaceutical Research

> <Link to Ligand in BindingDB>
http://www.bindingdb.org/bind/chemsearch/marvin/MolStructure.jsp?monomerid=3566

> <Link to Ligand-Target Pair in BindingDB>
http://www.bindingdb.org/jsp/dbsearch/PrimarySearch_ki.jsp?energyterm=kJ/mole&tag=r21&monomerid=3566&enzyme=Epidermal+growth+factor+receptor&column=ki&startPg=0&Increment=50&submit=Search

> <Ligand HET ID in PDB>


> <PDB ID(s) for Ligand-Target Complex>


> <PubChem CID>
5328230

> <PubChem SID>
8033289

> <ChEBI ID of Ligand>


> <ChEMBL ID of Ligand>
CHEMBL92174

> <DrugBank ID of Ligand>


> <IUPHAR_GRAC ID of Ligand>


> <KEGG ID of Ligand>


> <ZINC ID of Ligand>
ZINC03815283

> <Number of Protein Chains in Target (>
1

> <BindingDB Target Chain Sequence>
MRPSGTAGAALLALLAALCPASRALEEKKVCQGTSNKLTQLGTFEDHFLSLQRMFNNCEVVLGNLEITYVQRNYDLSFLKTIQEVAGYVLIALNTVERIPLENLQIIRGNMYYENSYALAVLSNYDANKTGLKELPMRNLQEILHGAVRFSNNPALCNVESIQWRDIVSSDFLSNMSMDFQNHLGSCQKCDPSCPNGSCWGAGEENCQKLTKIICAQQCSGRCRGKSPSDCCHNQCAAGCTGPRESDCLVCRKFRDEATCKDTCPPLMLYNPTTYQMDVNPEGKYSFGATCVKKCPRNYVVTDHGSCVRACGADSYEMEEDGVRKCKKCEGPCRKVCNGIGIGEFKDSLSINATNIKHFKNCTSISGDLHILPVAFRGDSFTHTPPLDPQELDILKTVKEITGFLLIQAWPENRTDLHAFENLEIIRGRTKQHGQFSLAVVSLNITSLGLRSLKEISDGDVIISGNKNLCYANTINWKKLFGTSGQKTKIISNRGENSCKATGQVCHALCSPEGCWGPEPRDCVSCRNVSRGRECVDKCNLLEGEPREFVENSECIQCHPECLPQAMNITCTGRGPDNCIQCAHYIDGPHCVKTCPAGVMGENNTLVWKYADAGHVCHLCHPNCTYGCTGPGLEGCPTNGPKIPSIATGMVGALLLLLVVALGIGLFMRRRHIVRKRTLRRLLQERELVEPLTPSGEAPNQALLRILKETEFKKIKVLGSGAFGTVYKGLWIPEGEKVKIPVAIKELREATSPKANKEILDEAYVMASVDNPHVCRLLGICLTSTVQLITQLMPFGCLLDYVREHKDNIGSQYLLNWCVQIAKGMNYLEDRRLVHRDLAARNVLVKTPQHVKITDFGLAKLLGAEEKEYHAEGGKVPIKWMALESILHRIYTHQSDVWSYGVTVWELMTFGSKPYDGIPASEISSILEKGERLPQPPICTIDVYMIMVKCWMIDADSRPKFRELIIEFSKMARDPQRYLVIQGDERMHLPSPTDSNFYRALMDEEDMDDVVDADEYLIPQQGFFSSPSTSRTPLLSSLSATSNNSTVACIDRNGLQSCPIKEDSFLQRYSSDPTGALTEDSIDDTFLPVPEYINQSVPKRPAGSVQNPVYHNQPLNPAPSRDPHYQDPHSTAVGNPEYLNTVQPTCVNSTFDSPAHWAQKGSHQISLDNPDYQQDFFPKEAKPNGIFKGSTAENAEYLRVAPQSSEFIGA

> <PDB ID(s) of Target Chain>
1IVO,1M14,1M17,1MOX,1XKK,1Z9I,2GS2,2GS6,2ITW,2ITX,2ITY,2J5E,2J5F,2J6M,2RF9,2RGP,3B2V,3BEL,3GOP,3POZ,3QWQ,3VJO,3W2O,3W2P,3W2Q,3W2R,3W2S,3W32,3W33,4G5J,4I23,4JQ7,4JQ8,4JR3,4JRV,4KRO,4LI5,4RJ4,4RJ5,4RJ6,4RJ7,4RJ8,4TKS,4UIP,4UV7,4WKQ,4WRG,4ZAU,5C8K,5C8M,5C8N,5CAL,5CAN,5CAO,5CAP,5CAQ,5CAS,5CAU,5CAV,5EDP,5EDQ,5EDR,5EM5,5EM6,5EM7,5EM8,5FED,5GNK,5HCX,5HCY,5HCZ,5HIB,5HIC,5UGB,5WB7,5WB8,5Y25,6S89,6S8A

> <UniProt (SwissProt) Recommended Name of Target Chain>
Epidermal growth factor receptor

> <UniProt (SwissProt) Entry Name of Target Chain>
EGFR_HUMAN

> <UniProt (SwissProt) Primary ID of Target Chain>
P00533

> <UniProt (SwissProt) Secondary ID(s) of Target Chain>
O00688,O00732,P06268,Q14225,Q68GS5,Q92795,Q9BZS2,Q9GZX1,Q9H2C9,Q9H3C9,Q9UMD7,Q9UMD8,Q9UMG5

> <UniProt (SwissProt) Alternative ID(s) of Target Chain>


> <UniProt (TrEMBL) Submitted Name of Target Chain>


> <UniProt (TrEMBL) Entry Name of Target Chain>


> <UniProt (TrEMBL) Primary ID of Target Chain>


> <UniProt (TrEMBL) Secondary ID(s) of Target Chain>


> <UniProt (TrEMBL) Alternative ID(s) of Target Chain>


> <training label>
6.89279

> <i_lp_mmshare_version>
54117

> <s_epik_input>
W0NIM11PYyhbY0hdMSljKE9bQ0gzXSlbY0hdYyhjMTIpbltjSF1uYzJbTkhdYzNjKEJyKVtjSF1bY0hdW2NIXVtjSF0z

> <s_epik_cmdline>
J2VwaWtfcHl0aG9uJywgJy1waHQnLCAnMC4xJywgJy1waCcsICc3LjQnLCAnLXRuJywgJzgnLCAnLW1hJywgJzIwMCcsICctaW1hZScsICc8aW5maWxlLm1hZT4nLCAnLW9tYWUnLCAnPG91dGZpbGUubWFlPic=

> <r_lp_tautomer_probability>
1

> <r_epik_Ionization_Penalty>
  0.0006

> <r_epik_Ionization_Penalty_Charging>
  0.0000

> <r_epik_Ionization_Penalty_Neutral>
  0.0006

> <r_epik_State_Penalty>
  0.0000

> <r_epik_Charging_Adjusted_Penalty>
0

> <i_epik_Tot_Q>
0

> <i_epik_Tot_abs_Q>
0

> <i_f3d_flags>
0

> <s_lp_Force_Field>
OPLS_2005

> <r_lp_Energy>
19.619755

> <b_lp_Chiralities_Consistent>
1

> <s_lp_Variant>
BindingDB_3566_mol_1-1

> <s_i_glide_gridfile>
struct_1_site_1

> <i_i_glide_lignum>
142

> <i_i_glide_rotatable_bonds>
4

> <r_i_docking_score>
-7.12382382341378

> <r_i_glide_ligand_efficiency>
-0.323810173791536

> <r_i_glide_ligand_efficiency_sa>
-0.907328841695375

> <r_i_glide_ligand_efficiency_ln>
-1.74132239022987

> <r_i_glide_gscore>
-7.12382382341378

> <r_i_glide_lipo>
-2.62741173938843

> <r_i_glide_hbond>
-0.32

> <r_i_glide_metal>
0

> <r_i_glide_rewards>
-2.1135512080068

> <r_i_glide_evdw>
-34.6476516723633

> <r_i_glide_ecoul>
-4.17381000518799

> <r_i_glide_erotb>
0.295593208377807

> <r_i_glide_esite>
0

> <r_i_glide_emodel>
-35.7796578062682

> <r_i_glide_energy>
-38.8214616775513

> <r_i_glide_einternal>
0.290599405765533

> <i_i_glide_confnum>
2

> <i_i_glide_posenum>
3

> <r_i_glide_eff_state_penalty>
0

> <IC50 (nM)>
128

> <r_glide_shape_similarity>
0.769759058952332

> <s_m_subgroup_title>
505 training

> <s_m_subgroupid>
pocket_pv

> <b_m_subgroup_collapsed>
0

$$$$
Anilinoquinazoline
                    3D
 Schrodinger Suite 2021-2.
 52 55  0  0  1  0            999 V2000
   21.4965    0.6563   52.4798 C   0  0  0  0  0  0
   20.1445    0.5206   52.0992 C   0  0  0  0  0  0
   19.3289   -0.4162   52.7717 C   0  0  0  0  0  0
   19.8730   -1.2119   53.8188 C   0  0  0  0  0  0
   22.0456   -0.1633   53.4965 C   0  0  0  0  0  0
   21.2415   -1.1125   54.1822 C   0  0  0  0  0  0
   23.4081   -0.0929   53.8608 C   0  0  0  0  0  0
   21.7892   -1.9000   55.1426 N   0  0  0  0  0  0
   25.6206    0.9217   53.2584 C   0  0  0  0  0  0
   27.8314   -0.1023   53.3863 C   0  0  0  0  0  0
   26.1791    2.2153   53.3266 C   0  0  0  0  0  0
   27.5605    2.3500   53.4801 C   0  0  0  0  0  0
   24.2338    0.8395   53.2209 N   0  0  0  0  0  0
   23.7654    1.6398   52.8219 H   0  0  0  0  0  0
   18.0631   -0.5934   52.2534 O   0  0  0  0  0  0
   28.3368    1.1878   53.5878 C   0  0  0  0  0  0
   26.4499   -0.2347   53.2109 C   0  0  0  0  0  0
   16.9569   -0.5188   53.1364 C   0  0  0  0  0  0
   15.6684   -0.2801   52.3238 C   0  0  0  0  0  0
   25.9361   -1.4734   53.0022 F   0  0  0  0  0  0
   29.8894    1.3440   54.1745 Cl  0  0  0  0  0  0
   19.5733    1.2568   51.0767 O   0  0  0  0  0  0
   20.3967    1.6149   49.9698 C   0  0  0  0  0  0
   23.0884   -1.7386   55.4157 C   0  0  0  0  0  0
   23.9217   -0.8799   54.8337 N   0  0  0  0  0  0
   14.1345   -2.1669   49.3659 C   0  0  0  0  0  0
   14.7701   -3.7792   51.0434 C   0  0  0  0  0  0
   14.9793   -2.6230   52.0591 C   0  0  0  0  0  0
   14.3485   -1.0151   50.3930 C   0  0  0  0  0  0
   15.3709   -1.3693   51.3874 N   0  0  0  0  0  0
   13.8176   -3.4059   50.0312 O   0  0  0  0  0  0
   22.1105    1.3750   51.9614 H   0  0  0  0  0  0
   19.2505   -1.9398   54.3158 H   0  0  0  0  0  0
   28.4681   -0.9729   53.4440 H   0  0  0  0  0  0
   25.5576    3.1002   53.3249 H   0  0  0  0  0  0
   27.9980    3.3257   53.6306 H   0  0  0  0  0  0
   17.0786    0.3298   53.7748 H   0  0  0  0  0  0
   16.8993   -1.4010   53.7728 H   0  0  0  0  0  0
   15.7877    0.6516   51.7691 H   0  0  0  0  0  0
   14.8247   -0.1292   52.9995 H   0  0  0  0  0  0
   19.7669    1.9263   49.1368 H   0  0  0  0  0  0
   21.0534    2.4476   50.2203 H   0  0  0  0  0  0
   21.0011    0.7717   49.6317 H   0  0  0  0  0  0
   23.5075   -2.3806   56.1755 H   0  0  0  0  0  0
   15.0363   -2.3049   48.7669 H   0  0  0  0  0  0
   13.3287   -1.9150   48.6761 H   0  0  0  0  0  0
   15.7231   -4.0379   50.5787 H   0  0  0  0  0  0
   14.4152   -4.6731   51.5553 H   0  0  0  0  0  0
   14.0623   -2.4646   52.6294 H   0  0  0  0  0  0
   15.7398   -2.9308   52.7749 H   0  0  0  0  0  0
   14.6439   -0.1092   49.8622 H   0  0  0  0  0  0
   13.4053   -0.7917   50.8946 H   0  0  0  0  0  0
  1  2  1  0  0  0
  1  5  2  0  0  0
  1 32  1  0  0  0
  2  3  2  0  0  0
  2 22  1  0  0  0
  3  4  1  0  0  0
  3 15  1  0  0  0
  4  6  2  0  0  0
  4 33  1  0  0  0
  5  6  1  0  0  0
  5  7  1  0  0  0
  6  8  1  0  0  0
  7 13  1  0  0  0
  7 25  2  0  0  0
  8 24  2  0  0  0
  9 11  1  0  0  0
  9 13  1  0  0  0
  9 17  2  0  0  0
 10 16  2  0  0  0
 10 17  1  0  0  0
 10 34  1  0  0  0
 11 12  2  0  0  0
 11 35  1  0  0  0
 12 16  1  0  0  0
 12 36  1  0  0  0
 13 14  1  0  0  0
 15 18  1  0  0  0
 16 21  1  0  0  0
 17 20  1  0  0  0
 18 19  1  0  0  0
 18 37  1  0  0  0
 18 38  1  0  0  0
 19 30  1  0  0  0
 19 39  1  0  0  0
 19 40  1  0  0  0
 22 23  1  0  0  0
 23 41  1  0  0  0
 23 42  1  0  0  0
 23 43  1  0  0  0
 24 25  1  0  0  0
 24 44  1  0  0  0
 26 29  1  0  0  0
 26 31  1  0  0  0
 26 45  1  0  0  0
 26 46  1  0  0  0
 27 28  1  0  0  0
 27 31  1  0  0  0
 27 47  1  0  0  0
 27 48  1  0  0  0
 28 30  1  0  0  0
 28 49  1  0  0  0
 28 50  1  0  0  0
 29 30  1  0  0  0
 29 51  1  0  0  0
 29 52  1  0  0  0
M  END
> <s_m_entry_id>
365

> <s_m_entry_name>
pocket_pv.176

> <s_m_Source_Path>
/home/bortolaa/Project/GT/mario-master/docking/set505protein_struct_1_site_1_set505ligs_train

> <s_m_Source_File>
pocket_pv.maegz

> <i_m_Source_File_Index>
176

> <From>
www.bindingDB.org

> <BindingDB Reactant_set_id>
7075

> <Ligand InChI>
InChI=1S/C21H22ClFN4O3/c1-28-19-11-15-18(12-20(19)30-9-6-27-4-7-29-8-5-27)24-13-25-21(15)26-17-3-2-14(22)10-16(17)23/h2-3,10-13H,4-9H2,1H3,(H,24,25,26)

> <Ligand InChI Key>
WOSBEBRTYHKLTR-UHFFFAOYSA-N

> <BindingDB MonomerID>
4638

> <BindingDB Ligand Name>
4-Anilinoquinazoline 8::Anilinoquinazoline deriv. 21::N-(4-chloro-2-fluorophenyl)-6-methoxy-7-[2-(morpholin-4-yl)ethoxy]quinazolin-4-amine

> <Target Name Assigned by Curator or DataSource>
Epidermal growth factor receptor

> <Target Source Organism According to Curator or DataSource>
Homo sapiens

> <Ki (nM)>


> <Kd (nM)>


> <EC50 (nM)>


> <kon (M-1-s-1)>


> <koff (s-1)>


> <pH>


> <Curation/DataSource>
Curated from the literature by BindingDB

> <Article DOI>
10.1021/jm011022e

> <PubChem AID>


> <Patent Number>


> <Authors>
Hennequin, LF; Stokes, ES; Thomas, AP; Johnstone, C; Ple, PA; Ogilvie, DJ; Dukes, M; Wedge, SR; Kendrew, J; Curwen, JO

> <Institution>
AstraZeneca

> <Link to Ligand in BindingDB>
http://www.bindingdb.org/bind/chemsearch/marvin/MolStructure.jsp?monomerid=4638

> <Link to Ligand-Target Pair in BindingDB>
http://www.bindingdb.org/jsp/dbsearch/PrimarySearch_ki.jsp?energyterm=kJ/mole&tag=r21&monomerid=4638&enzyme=Epidermal+growth+factor+receptor&column=ki&startPg=0&Increment=50&submit=Search

> <Ligand HET ID in PDB>


> <PDB ID(s) for Ligand-Target Complex>


> <PubChem CID>
5329019

> <PubChem SID>
8034301

> <ChEBI ID of Ligand>


> <ChEMBL ID of Ligand>


> <DrugBank ID of Ligand>


> <IUPHAR_GRAC ID of Ligand>


> <KEGG ID of Ligand>


> <ZINC ID of Ligand>
ZINC28759386

> <Number of Protein Chains in Target (>
1

> <BindingDB Target Chain Sequence>
MRPSGTAGAALLALLAALCPASRALEEKKVCQGTSNKLTQLGTFEDHFLSLQRMFNNCEVVLGNLEITYVQRNYDLSFLKTIQEVAGYVLIALNTVERIPLENLQIIRGNMYYENSYALAVLSNYDANKTGLKELPMRNLQEILHGAVRFSNNPALCNVESIQWRDIVSSDFLSNMSMDFQNHLGSCQKCDPSCPNGSCWGAGEENCQKLTKIICAQQCSGRCRGKSPSDCCHNQCAAGCTGPRESDCLVCRKFRDEATCKDTCPPLMLYNPTTYQMDVNPEGKYSFGATCVKKCPRNYVVTDHGSCVRACGADSYEMEEDGVRKCKKCEGPCRKVCNGIGIGEFKDSLSINATNIKHFKNCTSISGDLHILPVAFRGDSFTHTPPLDPQELDILKTVKEITGFLLIQAWPENRTDLHAFENLEIIRGRTKQHGQFSLAVVSLNITSLGLRSLKEISDGDVIISGNKNLCYANTINWKKLFGTSGQKTKIISNRGENSCKATGQVCHALCSPEGCWGPEPRDCVSCRNVSRGRECVDKCNLLEGEPREFVENSECIQCHPECLPQAMNITCTGRGPDNCIQCAHYIDGPHCVKTCPAGVMGENNTLVWKYADAGHVCHLCHPNCTYGCTGPGLEGCPTNGPKIPSIATGMVGALLLLLVVALGIGLFMRRRHIVRKRTLRRLLQERELVEPLTPSGEAPNQALLRILKETEFKKIKVLGSGAFGTVYKGLWIPEGEKVKIPVAIKELREATSPKANKEILDEAYVMASVDNPHVCRLLGICLTSTVQLITQLMPFGCLLDYVREHKDNIGSQYLLNWCVQIAKGMNYLEDRRLVHRDLAARNVLVKTPQHVKITDFGLAKLLGAEEKEYHAEGGKVPIKWMALESILHRIYTHQSDVWSYGVTVWELMTFGSKPYDGIPASEISSILEKGERLPQPPICTIDVYMIMVKCWMIDADSRPKFRELIIEFSKMARDPQRYLVIQGDERMHLPSPTDSNFYRALMDEEDMDDVVDADEYLIPQQGFFSSPSTSRTPLLSSLSATSNNSTVACIDRNGLQSCPIKEDSFLQRYSSDPTGALTEDSIDDTFLPVPEYINQSVPKRPAGSVQNPVYHNQPLNPAPSRDPHYQDPHSTAVGNPEYLNTVQPTCVNSTFDSPAHWAQKGSHQISLDNPDYQQDFFPKEAKPNGIFKGSTAENAEYLRVAPQSSEFIGA

> <PDB ID(s) of Target Chain>
1IVO,1M14,1M17,1MOX,1XKK,1Z9I,2GS2,2GS6,2ITW,2ITX,2ITY,2J5E,2J5F,2J6M,2RF9,2RGP,3B2V,3BEL,3GOP,3POZ,3QWQ,3VJO,3W2O,3W2P,3W2Q,3W2R,3W2S,3W32,3W33,4G5J,4I23,4JQ7,4JQ8,4JR3,4JRV,4KRO,4LI5,4RJ4,4RJ5,4RJ6,4RJ7,4RJ8,4TKS,4UIP,4UV7,4WKQ,4WRG,4ZAU,5C8K,5C8M,5C8N,5CAL,5CAN,5CAO,5CAP,5CAQ,5CAS,5CAU,5CAV,5EDP,5EDQ,5EDR,5EM5,5EM6,5EM7,5EM8,5FED,5GNK,5HCX,5HCY,5HCZ,5HIB,5HIC,5UGB,5WB7,5WB8,5Y25,6S89,6S8A

> <UniProt (SwissProt) Recommended Name of Target Chain>
Epidermal growth factor receptor

> <UniProt (SwissProt) Entry Name of Target Chain>
EGFR_HUMAN

> <UniProt (SwissProt) Primary ID of Target Chain>
P00533

> <UniProt (SwissProt) Secondary ID(s) of Target Chain>
O00688,O00732,P06268,Q14225,Q68GS5,Q92795,Q9BZS2,Q9GZX1,Q9H2C9,Q9H3C9,Q9UMD7,Q9UMD8,Q9UMG5

> <UniProt (SwissProt) Alternative ID(s) of Target Chain>


> <UniProt (TrEMBL) Submitted Name of Target Chain>


> <UniProt (TrEMBL) Entry Name of Target Chain>


> <UniProt (TrEMBL) Primary ID of Target Chain>


> <UniProt (TrEMBL) Secondary ID(s) of Target Chain>


> <UniProt (TrEMBL) Alternative ID(s) of Target Chain>


> <training label>
6.39794

> <i_lp_mmshare_version>
54117

> <s_epik_input>
W0NIMl0xW0NIMl1PW0NIMl1bQ0gyXU4xW0NIMl1bQ0gyXU9jKGMoW2NIXTIpT1tDSDNdKVtjSF1jKGMyMyluW2NIXW5jM1tOSF1jNFtjSF1bY0hdYyhDbClbY0hdYzRG

> <s_epik_cmdline>
J2VwaWtfcHl0aG9uJywgJy1waHQnLCAnMC4xJywgJy1waCcsICc3LjQnLCAnLXRuJywgJzgnLCAnLW1hJywgJzIwMCcsICctaW1hZScsICc8aW5maWxlLm1hZT4nLCAnLW9tYWUnLCAnPG91dGZpbGUubWFlPic=

> <r_lp_tautomer_probability>
0.999978000241998

> <r_epik_Ionization_Penalty>
  0.0271

> <r_epik_Ionization_Penalty_Charging>
  0.0000

> <r_epik_Ionization_Penalty_Neutral>
  0.0271

> <r_epik_State_Penalty>
  0.0215

> <r_epik_Charging_Adjusted_Penalty>
0.0215152733143456

> <i_epik_Tot_Q>
0

> <i_epik_Tot_abs_Q>
0

> <i_f3d_flags>
0

> <s_lp_Force_Field>
OPLS_2005

> <r_lp_Energy>
35.411195

> <b_lp_Chiralities_Consistent>
1

> <s_lp_Variant>
Anilinoquinazoline-1

> <s_i_glide_gridfile>
struct_1_site_1

> <i_i_glide_lignum>
113

> <i_i_glide_rotatable_bonds>
7

> <r_i_docking_score>
-7.11931106023092

> <r_i_glide_ligand_efficiency>
-0.237310368674364

> <r_i_glide_ligand_efficiency_sa>
-0.737378490708889

> <r_i_glide_ligand_efficiency_ln>
-1.61758504399142

> <r_i_glide_gscore>
-7.14081106023092

> <r_i_glide_lipo>
-2.75649062034823

> <r_i_glide_hbond>
-0.32

> <r_i_glide_metal>
0

> <r_i_glide_rewards>
-1.96624917789752

> <r_i_glide_evdw>
-35.6542778015137

> <r_i_glide_ecoul>
-5.64281320571899

> <r_i_glide_erotb>
0.531064608948368

> <r_i_glide_esite>
0

> <r_i_glide_emodel>
-37.6563334446136

> <r_i_glide_energy>
-41.2970910072327

> <r_i_glide_einternal>
7.28575849533081

> <i_i_glide_confnum>
68

> <i_i_glide_posenum>
286

> <r_i_glide_eff_state_penalty>
0.0215

> <IC50 (nM)>
400

> <PMID>
11881999

> <Temp C>
25

> <r_glide_shape_similarity>
0.792631447315216

> <s_m_subgroup_title>
505 training

> <s_m_subgroupid>
pocket_pv

> <b_m_subgroup_collapsed>
0

$$$$
BindingDB_50102077_mol_1
                    3D
 Schrodinger Suite 2021-2.
 55 58  0  0  1  0            999 V2000
   22.0740   -0.1738   53.5092 C   0  0  0  0  0  0
   23.4410   -0.1012   53.8728 C   0  0  0  0  0  0
   21.2635   -1.1231   54.1872 C   0  0  0  0  0  0
   21.5193    0.6506   52.5124 C   0  0  0  0  0  0
   23.9444   -0.9082   54.8319 N   0  0  0  0  0  0
   19.8923   -1.2137   53.8430 C   0  0  0  0  0  0
   24.2871    0.8514   53.2758 N   0  0  0  0  0  0
   20.1620    0.5272   52.1517 C   0  0  0  0  0  0
   19.3247   -0.3869   52.8333 C   0  0  0  0  0  0
   27.9136   -0.0739   53.3861 C   0  0  0  0  0  0
   21.8008   -1.9096   55.1473 N   0  0  0  0  0  0
   26.5111   -0.2006   53.3291 C   0  0  0  0  0  0
   18.7131    2.8132   48.6350 N   0  3  0  0  0  0
   23.0990   -1.7533   55.4190 C   0  0  0  0  0  0
   25.6839    0.9494   53.3402 C   0  0  0  0  0  0
   28.4939    1.2116   53.4588 C   0  0  0  0  0  0
   27.6779    2.3646   53.4302 C   0  0  0  0  0  0
   28.9095   -1.4925   53.3748 Cl  0  0  0  0  0  0
   26.2750    2.2339   53.3689 C   0  0  0  0  0  0
   19.6182    1.3141   51.1713 O   0  0  0  0  0  0
   29.8363    1.3264   53.5801 F   0  0  0  0  0  0
   17.9943   -0.4023   52.4437 O   0  0  0  0  0  0
   19.5371    1.5921   48.8518 C   0  0  0  0  0  0
   20.4502    1.6606   50.0707 C   0  0  0  0  0  0
   17.7085    3.0661   49.7229 C   0  0  0  0  0  0
   18.0648    2.7835   47.2851 C   0  0  0  0  0  0
   17.0502   -1.0940   53.2497 C   0  0  0  0  0  0
   17.2731    4.0845   46.9920 C   0  0  0  0  0  0
   16.8965    4.3621   49.4794 C   0  0  0  0  0  0
   16.2169    4.3462   48.0918 C   0  0  0  0  0  0
   22.1370    1.3796   52.0123 H   0  0  0  0  0  0
   19.2815   -1.9226   54.3804 H   0  0  0  0  0  0
   23.8199    1.6284   52.8315 H   0  0  0  0  0  0
   26.0773   -1.1880   53.2727 H   0  0  0  0  0  0
   23.5138   -2.4025   56.1743 H   0  0  0  0  0  0
   28.1251    3.3474   53.4770 H   0  0  0  0  0  0
   25.6651    3.1269   53.3608 H   0  0  0  0  0  0
   18.8832    0.7282   48.9743 H   0  0  0  0  0  0
   20.1629    1.4347   47.9734 H   0  0  0  0  0  0
   21.2533    0.9349   49.9262 H   0  0  0  0  0  0
   20.8999    2.6462   50.2012 H   0  0  0  0  0  0
   17.0331    2.2125   49.8039 H   0  0  0  0  0  0
   18.2043    3.1754   50.6858 H   0  0  0  0  0  0
   17.3886    1.9292   47.2315 H   0  0  0  0  0  0
   18.8187    2.6362   46.5101 H   0  0  0  0  0  0
   16.0433   -0.9011   52.8813 H   0  0  0  0  0  0
   17.2187   -2.1711   53.2168 H   0  0  0  0  0  0
   17.0941   -0.7599   54.2863 H   0  0  0  0  0  0
   16.7856    4.0140   46.0193 H   0  0  0  0  0  0
   17.9573    4.9321   46.9318 H   0  0  0  0  0  0
   17.5568    5.2288   49.5489 H   0  0  0  0  0  0
   16.1476    4.4948   50.2618 H   0  0  0  0  0  0
   15.7004    5.2893   47.9131 H   0  0  0  0  0  0
   15.4593    3.5631   48.0638 H   0  0  0  0  0  0
   19.3587    3.5980   48.6385 H   0  0  0  0  0  0
  1  2  2  0  0  0
  1  3  1  0  0  0
  1  4  1  0  0  0
  2  5  1  0  0  0
  2  7  1  0  0  0
  3  6  1  0  0  0
  3 11  2  0  0  0
  4  8  2  0  0  0
  4 31  1  0  0  0
  5 14  2  0  0  0
  6  9  2  0  0  0
  6 32  1  0  0  0
  7 15  1  0  0  0
  7 33  1  0  0  0
  8  9  1  0  0  0
  8 20  1  0  0  0
  9 22  1  0  0  0
 10 12  2  0  0  0
 10 16  1  0  0  0
 10 18  1  0  0  0
 11 14  1  0  0  0
 12 15  1  0  0  0
 12 34  1  0  0  0
 13 23  1  0  0  0
 13 25  1  0  0  0
 13 26  1  0  0  0
 13 55  1  0  0  0
 14 35  1  0  0  0
 15 19  2  0  0  0
 16 17  2  0  0  0
 16 21  1  0  0  0
 17 19  1  0  0  0
 17 36  1  0  0  0
 19 37  1  0  0  0
 20 24  1  0  0  0
 22 27  1  0  0  0
 23 24  1  0  0  0
 23 38  1  0  0  0
 23 39  1  0  0  0
 24 40  1  0  0  0
 24 41  1  0  0  0
 25 29  1  0  0  0
 25 42  1  0  0  0
 25 43  1  0  0  0
 26 28  1  0  0  0
 26 44  1  0  0  0
 26 45  1  0  0  0
 27 46  1  0  0  0
 27 47  1  0  0  0
 27 48  1  0  0  0
 28 30  1  0  0  0
 28 49  1  0  0  0
 28 50  1  0  0  0
 29 30  1  0  0  0
 29 51  1  0  0  0
 29 52  1  0  0  0
 30 53  1  0  0  0
 30 54  1  0  0  0
M  CHG  1  13   1
M  END
> <s_m_entry_id>
366

> <s_m_entry_name>
pocket_pv.177

> <s_m_Source_Path>
/home/bortolaa/Project/GT/mario-master/docking/set505protein_struct_1_site_1_set505ligs_train

> <s_m_Source_File>
pocket_pv.maegz

> <i_m_Source_File_Index>
177

> <From>
www.bindingDB.org

> <BindingDB Reactant_set_id>
50733042

> <Ligand InChI>
InChI=1S/C22H24ClFN4O2/c1-29-20-13-19-16(12-21(20)30-10-9-28-7-3-2-4-8-28)22(26-14-25-19)27-15-5-6-18(24)17(23)11-15/h5-6,11-14H,2-4,7-10H2,1H3,(H,25,26,27)

> <Ligand InChI Key>
QXZNYTGAAOAYAM-UHFFFAOYSA-N

> <BindingDB MonomerID>
50102077

> <BindingDB Ligand Name>
(3-Chloro-4-fluoro-phenyl)-[7-methoxy-6-(2-piperidin-1-yl-ethoxy)-quinazolin-4-yl]-amine::CHEMBL56142

> <Target Name Assigned by Curator or DataSource>
Epidermal growth factor receptor

> <Target Source Organism According to Curator or DataSource>
Homo sapiens

> <Ki (nM)>


> <Kd (nM)>


> <EC50 (nM)>


> <kon (M-1-s-1)>


> <koff (s-1)>


> <pH>


> <Temp C>


> <Curation/DataSource>
ChEMBL

> <Article DOI>
10.1016/s0960-894x(01)00344-4

> <PubChem AID>


> <Patent Number>


> <Authors>
Barker, AJ; Gibson, KH; Grundy, W; Godfrey, AA; Barlow, JJ; Healy, MP; Woodburn, JR; Ashton, SE; Curry, BJ; Scarlett, L; Henthorn, L; Richards, L

> <Institution>
AstraZeneca

> <Link to Ligand in BindingDB>
http://www.bindingdb.org/bind/chemsearch/marvin/MolStructure.jsp?monomerid=50102077

> <Link to Ligand-Target Pair in BindingDB>
http://www.bindingdb.org/jsp/dbsearch/PrimarySearch_ki.jsp?energyterm=kJ/mole&tag=r21&monomerid=50102077&enzyme=Epidermal+growth+factor+receptor&column=ki&startPg=0&Increment=50&submit=Search

> <Ligand HET ID in PDB>


> <PDB ID(s) for Ligand-Target Complex>


> <PubChem CID>
19077507

> <PubChem SID>
103998634

> <ChEBI ID of Ligand>


> <ChEMBL ID of Ligand>
CHEMBL56142

> <DrugBank ID of Ligand>


> <IUPHAR_GRAC ID of Ligand>


> <KEGG ID of Ligand>


> <ZINC ID of Ligand>
ZINC29556739

> <Number of Protein Chains in Target (>
1

> <BindingDB Target Chain Sequence>
MRPSGTAGAALLALLAALCPASRALEEKKVCQGTSNKLTQLGTFEDHFLSLQRMFNNCEVVLGNLEITYVQRNYDLSFLKTIQEVAGYVLIALNTVERIPLENLQIIRGNMYYENSYALAVLSNYDANKTGLKELPMRNLQEILHGAVRFSNNPALCNVESIQWRDIVSSDFLSNMSMDFQNHLGSCQKCDPSCPNGSCWGAGEENCQKLTKIICAQQCSGRCRGKSPSDCCHNQCAAGCTGPRESDCLVCRKFRDEATCKDTCPPLMLYNPTTYQMDVNPEGKYSFGATCVKKCPRNYVVTDHGSCVRACGADSYEMEEDGVRKCKKCEGPCRKVCNGIGIGEFKDSLSINATNIKHFKNCTSISGDLHILPVAFRGDSFTHTPPLDPQELDILKTVKEITGFLLIQAWPENRTDLHAFENLEIIRGRTKQHGQFSLAVVSLNITSLGLRSLKEISDGDVIISGNKNLCYANTINWKKLFGTSGQKTKIISNRGENSCKATGQVCHALCSPEGCWGPEPRDCVSCRNVSRGRECVDKCNLLEGEPREFVENSECIQCHPECLPQAMNITCTGRGPDNCIQCAHYIDGPHCVKTCPAGVMGENNTLVWKYADAGHVCHLCHPNCTYGCTGPGLEGCPTNGPKIPSIATGMVGALLLLLVVALGIGLFMRRRHIVRKRTLRRLLQERELVEPLTPSGEAPNQALLRILKETEFKKIKVLGSGAFGTVYKGLWIPEGEKVKIPVAIKELREATSPKANKEILDEAYVMASVDNPHVCRLLGICLTSTVQLITQLMPFGCLLDYVREHKDNIGSQYLLNWCVQIAKGMNYLEDRRLVHRDLAARNVLVKTPQHVKITDFGLAKLLGAEEKEYHAEGGKVPIKWMALESILHRIYTHQSDVWSYGVTVWELMTFGSKPYDGIPASEISSILEKGERLPQPPICTIDVYMIMVKCWMIDADSRPKFRELIIEFSKMARDPQRYLVIQGDERMHLPSPTDSNFYRALMDEEDMDDVVDADEYLIPQQGFFSSPSTSRTPLLSSLSATSNNSTVACIDRNGLQSCPIKEDSFLQRYSSDPTGALTEDSIDDTFLPVPEYINQSVPKRPAGSVQNPVYHNQPLNPAPSRDPHYQDPHSTAVGNPEYLNTVQPTCVNSTFDSPAHWAQKGSHQISLDNPDYQQDFFPKEAKPNGIFKGSTAENAEYLRVAPQSSEFIGA

> <PDB ID(s) of Target Chain>
1IVO,1M14,1M17,1MOX,1XKK,1Z9I,2GS2,2GS6,2ITW,2ITX,2ITY,2J5E,2J5F,2J6M,2RF9,2RGP,3B2V,3BEL,3GOP,3POZ,3QWQ,3VJO,3W2O,3W2P,3W2Q,3W2R,3W2S,3W32,3W33,4G5J,4I23,4JQ7,4JQ8,4JR3,4JRV,4KRO,4LI5,4RJ4,4RJ5,4RJ6,4RJ7,4RJ8,4TKS,4UIP,4UV7,4WKQ,4WRG,4ZAU,5C8K,5C8M,5C8N,5CAL,5CAN,5CAO,5CAP,5CAQ,5CAS,5CAU,5CAV,5EDP,5EDQ,5EDR,5EM5,5EM6,5EM7,5EM8,5FED,5GNK,5HCX,5HCY,5HCZ,5HIB,5HIC,5UGB,5WB7,5WB8,5Y25,6S89,6S8A

> <UniProt (SwissProt) Recommended Name of Target Chain>
Epidermal growth factor receptor

> <UniProt (SwissProt) Entry Name of Target Chain>
EGFR_HUMAN

> <UniProt (SwissProt) Primary ID of Target Chain>
P00533

> <UniProt (SwissProt) Secondary ID(s) of Target Chain>
O00688,O00732,P06268,Q14225,Q68GS5,Q92795,Q9BZS2,Q9GZX1,Q9H2C9,Q9H3C9,Q9UMD7,Q9UMD8,Q9UMG5

> <UniProt (SwissProt) Alternative ID(s) of Target Chain>


> <UniProt (TrEMBL) Submitted Name of Target Chain>


> <UniProt (TrEMBL) Entry Name of Target Chain>


> <UniProt (TrEMBL) Primary ID of Target Chain>


> <UniProt (TrEMBL) Secondary ID(s) of Target Chain>


> <UniProt (TrEMBL) Alternative ID(s) of Target Chain>


> <training label>
7.00877

> <i_lp_mmshare_version>
54117

> <s_epik_input>
RmMxW2NIXVtjSF1jKFtjSF1jMUNsKVtOSF1jMm5bY0hdbmMoYzIzKVtjSF1jKE9bQ0gzXSljKFtjSF0zKU9bQ0gyXVtDSDJdTjRbQ0gyXVtDSDJdW0NIMl1bQ0gyXVtDSDJdNA==

> <s_epik_cmdline>
J2VwaWtfcHl0aG9uJywgJy1waHQnLCAnMC4xJywgJy1waCcsICc3LjQnLCAnLXRuJywgJzgnLCAnLW1hJywgJzIwMCcsICctaW1hZScsICc8aW5maWxlLm1hZT4nLCAnLW9tYWUnLCAnPG91dGZpbGUubWFlPic=

> <r_lp_tautomer_probability>
0.999978000241998

> <r_epik_Ionization_Penalty>
  0.0306

> <r_epik_Ionization_Penalty_Charging>
  0.0302

> <r_epik_Ionization_Penalty_Neutral>
  0.0004

> <r_epik_State_Penalty>
  0.0249

> <r_epik_Charging_Adjusted_Penalty>
0.0551596425646843

> <i_epik_Tot_Q>
1

> <i_epik_Tot_abs_Q>
1

> <i_f3d_flags>
0

> <s_lp_Force_Field>
OPLS_2005

> <r_lp_Energy>
36.331717

> <b_lp_Chiralities_Consistent>
1

> <s_lp_Variant>
BindingDB_50102077_mol_1-1

> <s_i_glide_gridfile>
struct_1_site_1

> <i_i_glide_lignum>
164

> <i_i_glide_rotatable_bonds>
7

> <r_i_docking_score>
-7.11745379343699

> <r_i_glide_ligand_efficiency>
-0.237248459781233

> <r_i_glide_ligand_efficiency_sa>
-0.737186125383962

> <r_i_glide_ligand_efficiency_ln>
-1.6171630527393

> <r_i_glide_gscore>
-7.14235379343699

> <r_i_glide_lipo>
-2.91113594616291

> <r_i_glide_hbond>
-0.32

> <r_i_glide_metal>
0

> <r_i_glide_rewards>
-1.60745453729362

> <r_i_glide_evdw>
-41.925163269043

> <r_i_glide_ecoul>
-4.49383878707886

> <r_i_glide_erotb>
0.533216494566337

> <r_i_glide_esite>
-0.0666458230328243

> <r_i_glide_emodel>
-57.6762433027217

> <r_i_glide_energy>
-46.4190020561218

> <r_i_glide_einternal>
1.85250985622406

> <i_i_glide_confnum>
29

> <i_i_glide_posenum>
8

> <r_i_glide_eff_state_penalty>
0.0249

> <IC50 (nM)>
98

> <PMID>
11459659

> <r_glide_shape_similarity>
0.85120415687561

> <s_m_subgroup_title>
505 training

> <s_m_subgroupid>
pocket_pv

> <b_m_subgroup_collapsed>
0

$$$$
BindingDB_50308826_mol_1
                    3D
 Schrodinger Suite 2021-2.
 47 49  0  0  1  0            999 V2000
   20.1564    0.5098   52.1804 C   0  0  0  0  0  0
   19.3394   -0.4013   52.8529 C   0  0  0  0  0  0
   19.9113   -1.2165   53.8468 C   0  0  0  0  0  0
   21.5153    0.6395   52.5038 C   0  0  0  0  0  0
   22.0757   -0.1724   53.5041 C   0  0  0  0  0  0
   21.2731   -1.1151   54.1830 C   0  0  0  0  0  0
   21.8055   -1.8956   55.1398 N   0  0  0  0  0  0
   23.0965   -1.7361   55.4087 C   0  0  0  0  0  0
   23.9380   -0.8964   54.8232 N   0  0  0  0  0  0
   23.4371   -0.0975   53.8675 C   0  0  0  0  0  0
   24.2868    0.8476   53.2759 N   0  0  0  0  0  0
   25.6796    0.9473   53.3426 C   0  0  0  0  0  0
   26.5037   -0.1932   53.3321 C   0  0  0  0  0  0
   27.8954   -0.0635   53.3865 C   0  0  0  0  0  0
   28.4704    1.2067   53.4581 C   0  0  0  0  0  0
   27.6654    2.3523   53.4305 C   0  0  0  0  0  0
   26.2704    2.2230   53.3695 C   0  0  0  0  0  0
   28.8885   -1.4658   53.3755 Cl  0  0  0  0  0  0
   19.5338    1.2943   51.2690 O   0  0  0  0  0  0
   20.2261    1.6356   50.1030 C   0  0  0  0  0  0
   18.0155   -0.4195   52.4813 O   0  0  0  0  0  0
   17.1055   -1.1460   53.2759 C   0  0  0  0  0  0
   19.1038    2.2787   49.3144 C   0  0  0  0  0  0
   19.5570    2.7919   47.9679 C   0  0  0  0  0  0
   18.4128    3.4617   47.2049 C   0  0  0  0  0  0
   17.9409    4.6997   47.8474 C   0  0  0  0  0  0
   17.6593    5.7456   48.4136 C   0  0  0  0  0  0
   29.8038    1.3162   53.5712 F   0  0  0  0  0  0
   19.3112   -1.9309   54.3881 H   0  0  0  0  0  0
   22.1165    1.3698   51.9844 H   0  0  0  0  0  0
   23.5132   -2.3853   56.1629 H   0  0  0  0  0  0
   23.8203    1.6215   52.8357 H   0  0  0  0  0  0
   26.0718   -1.1813   53.2767 H   0  0  0  0  0  0
   28.1139    3.3339   53.4760 H   0  0  0  0  0  0
   25.6613    3.1162   53.3603 H   0  0  0  0  0  0
   20.6253    0.7612   49.5839 H   0  0  0  0  0  0
   21.0273    2.3488   50.2947 H   0  0  0  0  0  0
   16.0910   -0.9638   52.9229 H   0  0  0  0  0  0
   17.2929   -2.2183   53.2087 H   0  0  0  0  0  0
   17.1517   -0.8411   54.3219 H   0  0  0  0  0  0
   18.6977    3.0991   49.9081 H   0  0  0  0  0  0
   18.2872    1.5677   49.1774 H   0  0  0  0  0  0
   19.9684    1.9708   47.3827 H   0  0  0  0  0  0
   20.3692    3.5038   48.1210 H   0  0  0  0  0  0
   17.5680    2.7779   47.0953 H   0  0  0  0  0  0
   18.7458    3.7240   46.2005 H   0  0  0  0  0  0
   17.4945    6.6507   48.9629 H   0  0  0  0  0  0
  1  2  2  0  0  0
  1  4  1  0  0  0
  1 19  1  0  0  0
  2  3  1  0  0  0
  2 21  1  0  0  0
  3  6  2  0  0  0
  3 29  1  0  0  0
  4  5  2  0  0  0
  4 30  1  0  0  0
  5  6  1  0  0  0
  5 10  1  0  0  0
  6  7  1  0  0  0
  7  8  2  0  0  0
  8  9  1  0  0  0
  8 31  1  0  0  0
  9 10  2  0  0  0
 10 11  1  0  0  0
 11 12  1  0  0  0
 11 32  1  0  0  0
 12 13  1  0  0  0
 12 17  2  0  0  0
 13 14  2  0  0  0
 13 33  1  0  0  0
 14 15  1  0  0  0
 14 18  1  0  0  0
 15 16  2  0  0  0
 15 28  1  0  0  0
 16 17  1  0  0  0
 16 34  1  0  0  0
 17 35  1  0  0  0
 19 20  1  0  0  0
 20 23  1  0  0  0
 20 36  1  0  0  0
 20 37  1  0  0  0
 21 22  1  0  0  0
 22 38  1  0  0  0
 22 39  1  0  0  0
 22 40  1  0  0  0
 23 24  1  0  0  0
 23 41  1  0  0  0
 23 42  1  0  0  0
 24 25  1  0  0  0
 24 43  1  0  0  0
 24 44  1  0  0  0
 25 26  1  0  0  0
 25 45  1  0  0  0
 25 46  1  0  0  0
 26 27  3  0  0  0
 27 47  1  0  0  0
M  END
> <s_m_entry_id>
367

> <s_m_entry_name>
pocket_pv.178

> <s_m_Source_Path>
/home/bortolaa/Project/GT/mario-master/docking/set505protein_struct_1_site_1_set505ligs_train

> <s_m_Source_File>
pocket_pv.maegz

> <i_m_Source_File_Index>
178

> <From>
www.bindingDB.org

> <BindingDB Reactant_set_id>
50554729

> <Ligand InChI>
InChI=1S/C21H19ClFN3O2/c1-3-4-5-6-9-28-20-11-15-18(12-19(20)27-2)24-13-25-21(15)26-14-7-8-17(23)16(22)10-14/h1,7-8,10-13H,4-6,9H2,2H3,(H,24,25,26)

> <Ligand InChI Key>
OEVCNTKKXWSHFC-UHFFFAOYSA-N

> <BindingDB MonomerID>
50308826

> <BindingDB Ligand Name>
4-(3'-Chloro-4'-fluoroanilino)-6-(hex-5-ynyloxy)-7-methoxyquinazoline::CHEMBL591039

> <Target Name Assigned by Curator or DataSource>
Epidermal growth factor receptor

> <Target Source Organism According to Curator or DataSource>
Homo sapiens

> <Ki (nM)>


> <Kd (nM)>


> <EC50 (nM)>


> <kon (M-1-s-1)>


> <koff (s-1)>


> <pH>


> <Temp C>


> <Curation/DataSource>
ChEMBL

> <Article DOI>
10.1016/j.bmc.2009.11.035

> <PubChem AID>


> <Patent Number>


> <Authors>
Ban, HS; Tanaka, Y; Nabeyama, W; Hatori, M; Nakamura, H

> <Institution>
Gakushuin University

> <Link to Ligand in BindingDB>
http://www.bindingdb.org/bind/chemsearch/marvin/MolStructure.jsp?monomerid=50308826

> <Link to Ligand-Target Pair in BindingDB>
http://www.bindingdb.org/jsp/dbsearch/PrimarySearch_ki.jsp?energyterm=kJ/mole&tag=r21&monomerid=50308826&enzyme=Epidermal+growth+factor+receptor&column=ki&startPg=0&Increment=50&submit=Search

> <Ligand HET ID in PDB>


> <PDB ID(s) for Ligand-Target Complex>


> <PubChem CID>
46229769

> <PubChem SID>
104163187

> <ChEBI ID of Ligand>


> <ChEMBL ID of Ligand>
CHEMBL591039

> <DrugBank ID of Ligand>


> <IUPHAR_GRAC ID of Ligand>


> <KEGG ID of Ligand>


> <ZINC ID of Ligand>
ZINC45336956

> <Number of Protein Chains in Target (>
1

> <BindingDB Target Chain Sequence>
MRPSGTAGAALLALLAALCPASRALEEKKVCQGTSNKLTQLGTFEDHFLSLQRMFNNCEVVLGNLEITYVQRNYDLSFLKTIQEVAGYVLIALNTVERIPLENLQIIRGNMYYENSYALAVLSNYDANKTGLKELPMRNLQEILHGAVRFSNNPALCNVESIQWRDIVSSDFLSNMSMDFQNHLGSCQKCDPSCPNGSCWGAGEENCQKLTKIICAQQCSGRCRGKSPSDCCHNQCAAGCTGPRESDCLVCRKFRDEATCKDTCPPLMLYNPTTYQMDVNPEGKYSFGATCVKKCPRNYVVTDHGSCVRACGADSYEMEEDGVRKCKKCEGPCRKVCNGIGIGEFKDSLSINATNIKHFKNCTSISGDLHILPVAFRGDSFTHTPPLDPQELDILKTVKEITGFLLIQAWPENRTDLHAFENLEIIRGRTKQHGQFSLAVVSLNITSLGLRSLKEISDGDVIISGNKNLCYANTINWKKLFGTSGQKTKIISNRGENSCKATGQVCHALCSPEGCWGPEPRDCVSCRNVSRGRECVDKCNLLEGEPREFVENSECIQCHPECLPQAMNITCTGRGPDNCIQCAHYIDGPHCVKTCPAGVMGENNTLVWKYADAGHVCHLCHPNCTYGCTGPGLEGCPTNGPKIPSIATGMVGALLLLLVVALGIGLFMRRRHIVRKRTLRRLLQERELVEPLTPSGEAPNQALLRILKETEFKKIKVLGSGAFGTVYKGLWIPEGEKVKIPVAIKELREATSPKANKEILDEAYVMASVDNPHVCRLLGICLTSTVQLITQLMPFGCLLDYVREHKDNIGSQYLLNWCVQIAKGMNYLEDRRLVHRDLAARNVLVKTPQHVKITDFGLAKLLGAEEKEYHAEGGKVPIKWMALESILHRIYTHQSDVWSYGVTVWELMTFGSKPYDGIPASEISSILEKGERLPQPPICTIDVYMIMVKCWMIDADSRPKFRELIIEFSKMARDPQRYLVIQGDERMHLPSPTDSNFYRALMDEEDMDDVVDADEYLIPQQGFFSSPSTSRTPLLSSLSATSNNSTVACIDRNGLQSCPIKEDSFLQRYSSDPTGALTEDSIDDTFLPVPEYINQSVPKRPAGSVQNPVYHNQPLNPAPSRDPHYQDPHSTAVGNPEYLNTVQPTCVNSTFDSPAHWAQKGSHQISLDNPDYQQDFFPKEAKPNGIFKGSTAENAEYLRVAPQSSEFIGA

> <PDB ID(s) of Target Chain>
1IVO,1M14,1M17,1MOX,1XKK,1Z9I,2GS2,2GS6,2ITW,2ITX,2ITY,2J5E,2J5F,2J6M,2RF9,2RGP,3B2V,3BEL,3GOP,3POZ,3QWQ,3VJO,3W2O,3W2P,3W2Q,3W2R,3W2S,3W32,3W33,4G5J,4I23,4JQ7,4JQ8,4JR3,4JRV,4KRO,4LI5,4RJ4,4RJ5,4RJ6,4RJ7,4RJ8,4TKS,4UIP,4UV7,4WKQ,4WRG,4ZAU,5C8K,5C8M,5C8N,5CAL,5CAN,5CAO,5CAP,5CAQ,5CAS,5CAU,5CAV,5EDP,5EDQ,5EDR,5EM5,5EM6,5EM7,5EM8,5FED,5GNK,5HCX,5HCY,5HCZ,5HIB,5HIC,5UGB,5WB7,5WB8,5Y25,6S89,6S8A

> <UniProt (SwissProt) Recommended Name of Target Chain>
Epidermal growth factor receptor

> <UniProt (SwissProt) Entry Name of Target Chain>
EGFR_HUMAN

> <UniProt (SwissProt) Primary ID of Target Chain>
P00533

> <UniProt (SwissProt) Secondary ID(s) of Target Chain>
O00688,O00732,P06268,Q14225,Q68GS5,Q92795,Q9BZS2,Q9GZX1,Q9H2C9,Q9H3C9,Q9UMD7,Q9UMD8,Q9UMG5

> <UniProt (SwissProt) Alternative ID(s) of Target Chain>


> <UniProt (TrEMBL) Submitted Name of Target Chain>


> <UniProt (TrEMBL) Entry Name of Target Chain>


> <UniProt (TrEMBL) Primary ID of Target Chain>


> <UniProt (TrEMBL) Secondary ID(s) of Target Chain>


> <UniProt (TrEMBL) Alternative ID(s) of Target Chain>


> <training label>
7.05998

> <i_lp_mmshare_version>
54117

> <s_epik_input>
W0NIXSNDW0NIMl1bQ0gyXVtDSDJdW0NIMl1PYyhbY0hdMSljKE9bQ0gzXSlbY0hdYyhjMTIpbltjSF1uYzJbTkhdYzNbY0hdYyhDbCljKEYpW2NIXVtjSF0z

> <s_epik_cmdline>
J2VwaWtfcHl0aG9uJywgJy1waHQnLCAnMC4xJywgJy1waCcsICc3LjQnLCAnLXRuJywgJzgnLCAnLW1hJywgJzIwMCcsICctaW1hZScsICc8aW5maWxlLm1hZT4nLCAnLW9tYWUnLCAnPG91dGZpbGUubWFlPic=

> <r_lp_tautomer_probability>
1

> <r_epik_Ionization_Penalty>
  0.0011

> <r_epik_Ionization_Penalty_Charging>
  0.0000

> <r_epik_Ionization_Penalty_Neutral>
  0.0011

> <r_epik_State_Penalty>
  0.0000

> <r_epik_Charging_Adjusted_Penalty>
0

> <i_epik_Tot_Q>
0

> <i_epik_Tot_abs_Q>
0

> <i_f3d_flags>
0

> <s_lp_Force_Field>
OPLS_2005

> <r_lp_Energy>
19.223238

> <b_lp_Chiralities_Consistent>
1

> <s_lp_Variant>
BindingDB_50308826_mol_1-1

> <s_i_glide_gridfile>
struct_1_site_1

> <i_i_glide_lignum>
168

> <i_i_glide_rotatable_bonds>
9

> <r_i_docking_score>
-7.11739799567722

> <r_i_glide_ligand_efficiency>
-0.254192785559901

> <r_i_glide_ligand_efficiency_sa>
-0.771879008504197

> <r_i_glide_ligand_efficiency_ln>
-1.64290443328803

> <r_i_glide_gscore>
-7.11739799567722

> <r_i_glide_lipo>
-2.95114846020621

> <r_i_glide_hbond>
-0.32

> <r_i_glide_metal>
0

> <r_i_glide_rewards>
-1.84363080336024

> <r_i_glide_evdw>
-41.888111114502

> <r_i_glide_ecoul>
-5.50037527084351

> <r_i_glide_erotb>
0.980681423786585

> <r_i_glide_esite>
-0.0638383095457346

> <r_i_glide_emodel>
-54.83293046905

> <r_i_glide_energy>
-47.3884863853455

> <r_i_glide_einternal>
4.11097240447998

> <i_i_glide_confnum>
19

> <i_i_glide_posenum>
393

> <r_i_glide_eff_state_penalty>
0

> <IC50 (nM)>
87.1

> <PMID>
19969465

> <r_glide_shape_similarity>
0.867437422275543

> <s_m_subgroup_title>
505 training

> <s_m_subgroupid>
pocket_pv

> <b_m_subgroup_collapsed>
0

$$$$
BindingDB_50144606_mol_1
                    3D
 Schrodinger Suite 2021-2.
 44 47  0  0  1  0            999 V2000
   24.2672    0.7781   53.1817 N   0  0  0  0  0  0
   25.7314    1.0611   53.1047 C   0  0  2  0  0  0
   23.5917   -0.1242   53.9731 C   0  0  0  0  0  0
   22.2459   -0.1054   53.5288 C   0  0  0  0  0  0
   22.0713    0.8370   52.5394 N   0  0  0  0  0  0
   26.5953   -0.1382   52.6883 C   0  0  1  0  0  0
   23.3054    1.3147   52.4140 C   0  0  0  0  0  0
   26.2083    1.4680   54.3318 O   0  0  0  0  0  0
   27.6242   -0.2297   53.7789 C   0  0  2  0  0  0
   27.5943    1.1744   54.3430 C   0  0  1  0  0  0
   21.3992   -1.0315   54.1611 C   0  0  0  0  0  0
   24.0879   -0.9173   54.9545 N   0  0  0  0  0  0
   21.8763   -1.8397   55.1200 N   0  0  0  0  0  0
   19.7269   -1.2737   53.7746 S   0  0  0  0  0  0
   23.1565   -1.7242   55.4520 C   0  0  0  0  0  0
   25.9195   -1.3588   52.5753 O   0  0  0  0  0  0
   28.8867   -0.6408   53.3084 O   0  0  0  0  0  0
   19.2501   -0.0668   52.5287 C   0  0  0  0  0  0
   14.9794    0.1579   51.8786 C   0  0  0  0  0  0
   17.7577   -0.0753   52.2879 C   0  0  0  0  0  0
   28.3026    2.2577   53.5174 C   0  0  0  0  0  0
   12.9209    0.3584   51.6412 I   0  0  0  0  0  0
   15.4610   -0.4596   53.0288 C   0  0  0  0  0  0
   15.8781    0.6389   50.9137 C   0  0  0  0  0  0
   16.8408   -0.5798   53.2329 C   0  0  0  0  0  0
   17.2643    0.5245   51.1203 C   0  0  0  0  0  0
   29.4877    2.6308   54.1684 O   0  0  0  0  0  0
   25.8089    1.8848   52.3920 H   0  0  0  0  0  0
   27.0635    0.1095   51.7486 H   0  0  0  0  0  0
   23.5308    2.0724   51.6770 H   0  0  0  0  0  0
   27.2914   -0.9083   54.5658 H   0  0  0  0  0  0
   27.9573    1.1428   55.3705 H   0  0  0  0  0  0
   23.4995   -2.4127   56.2083 H   0  0  0  0  0  0
   26.5626   -2.0459   52.5015 H   0  0  0  0  0  0
   28.8904   -1.5821   53.2288 H   0  0  0  0  0  0
   19.5152    0.9335   52.8691 H   0  0  0  0  0  0
   19.7813   -0.2693   51.5981 H   0  0  0  0  0  0
   27.6863    3.1556   53.4575 H   0  0  0  0  0  0
   28.5152    1.9451   52.4960 H   0  0  0  0  0  0
   14.7696   -0.8256   53.7735 H   0  0  0  0  0  0
   15.5040    1.1174   50.0207 H   0  0  0  0  0  0
   17.1583   -1.0261   54.1629 H   0  0  0  0  0  0
   17.9461    0.9262   50.3846 H   0  0  0  0  0  0
   30.2370    2.3414   53.6563 H   0  0  0  0  0  0
  1  2  1  0  0  0
  1  3  1  0  0  0
  1  7  1  0  0  0
  2  6  1  0  0  0
  2  8  1  0  0  0
  2 28  1  0  0  0
  3  4  2  0  0  0
  3 12  1  0  0  0
  4 11  1  0  0  0
  4  5  1  0  0  0
  5  7  2  0  0  0
  6  9  1  0  0  0
  6 16  1  0  0  0
  6 29  1  0  0  0
  7 30  1  0  0  0
  8 10  1  0  0  0
  9 17  1  0  0  0
  9 10  1  0  0  0
  9 31  1  0  0  0
 10 21  1  0  0  0
 10 32  1  0  0  0
 11 14  1  0  0  0
 11 13  2  0  0  0
 12 15  2  0  0  0
 13 15  1  0  0  0
 14 18  1  0  0  0
 15 33  1  0  0  0
 16 34  1  0  0  0
 17 35  1  0  0  0
 18 20  1  0  0  0
 18 36  1  0  0  0
 18 37  1  0  0  0
 19 24  2  0  0  0
 19 22  1  0  0  0
 19 23  1  0  0  0
 20 25  1  0  0  0
 20 26  2  0  0  0
 21 27  1  0  0  0
 21 38  1  0  0  0
 21 39  1  0  0  0
 23 25  2  0  0  0
 23 40  1  0  0  0
 24 26  1  0  0  0
 24 41  1  0  0  0
 25 42  1  0  0  0
 26 43  1  0  0  0
 27 44  1  0  0  0
M  END
> <s_m_entry_id>
368

> <s_m_entry_name>
pocket_pv.179

> <s_m_Source_Path>
/home/bortolaa/Project/GT/mario-master/docking/set505protein_struct_1_site_1_set505ligs_train

> <s_m_Source_File>
pocket_pv.maegz

> <i_m_Source_File_Index>
179

> <From>
www.bindingDB.org

> <BindingDB Reactant_set_id>
50463846

> <Ligand InChI>
InChI=1S/C29H23ClN4O3/c1-36-26-15-23-25(16-27(26)37-17-19-7-3-2-4-8-19)31-18-32-28(23)33-20-11-13-21(14-12-20)34-29(35)22-9-5-6-10-24(22)30/h2-16,18H,17H2,1H3,(H,34,35)(H,31,32,33)

> <Ligand InChI Key>
JASSTMZJDQXQFP-UHFFFAOYSA-N

> <BindingDB MonomerID>
50144606

> <BindingDB Ligand Name>
CHEMBL3759203

> <Target Name Assigned by Curator or DataSource>
Epidermal growth factor receptor

> <Target Source Organism According to Curator or DataSource>
Homo sapiens

> <Ki (nM)>


> <IC50 (nM)>
730

> <Kd (nM)>


> <EC50 (nM)>


> <kon (M-1-s-1)>


> <koff (s-1)>


> <pH>


> <Temp C>


> <Curation/DataSource>
ChEMBL

> <Article DOI>
10.1016/j.ejmech.2015.12.032

> <PubChem AID>


> <Patent Number>


> <Authors>
Zhang, HQ; Gong, FH; Li, CG; Zhang, C; Wang, YJ; Xu, YG; Sun, LP

> <Institution>
China Pharmaceutical University

> <Link to Ligand in BindingDB>
http://www.bindingdb.org/bind/chemsearch/marvin/MolStructure.jsp?monomerid=50144606

> <Link to Ligand-Target Pair in BindingDB>
http://www.bindingdb.org/jsp/dbsearch/PrimarySearch_ki.jsp?energyterm=kJ/mole&tag=r21&monomerid=50144606&enzyme=Epidermal+growth+factor+receptor&column=ki&startPg=0&Increment=50&submit=Search

> <Ligand HET ID in PDB>


> <PDB ID(s) for Ligand-Target Complex>


> <PubChem CID>
44312149

> <PubChem SID>
104033684

> <ChEBI ID of Ligand>


> <ChEMBL ID of Ligand>
CHEMBL3759203

> <DrugBank ID of Ligand>


> <IUPHAR_GRAC ID of Ligand>


> <KEGG ID of Ligand>


> <ZINC ID of Ligand>
ZINC36332177

> <Number of Protein Chains in Target (>
1

> <BindingDB Target Chain Sequence>
MRPSGTAGAALLALLAALCPASRALEEKKVCQGTSNKLTQLGTFEDHFLSLQRMFNNCEVVLGNLEITYVQRNYDLSFLKTIQEVAGYVLIALNTVERIPLENLQIIRGNMYYENSYALAVLSNYDANKTGLKELPMRNLQEILHGAVRFSNNPALCNVESIQWRDIVSSDFLSNMSMDFQNHLGSCQKCDPSCPNGSCWGAGEENCQKLTKIICAQQCSGRCRGKSPSDCCHNQCAAGCTGPRESDCLVCRKFRDEATCKDTCPPLMLYNPTTYQMDVNPEGKYSFGATCVKKCPRNYVVTDHGSCVRACGADSYEMEEDGVRKCKKCEGPCRKVCNGIGIGEFKDSLSINATNIKHFKNCTSISGDLHILPVAFRGDSFTHTPPLDPQELDILKTVKEITGFLLIQAWPENRTDLHAFENLEIIRGRTKQHGQFSLAVVSLNITSLGLRSLKEISDGDVIISGNKNLCYANTINWKKLFGTSGQKTKIISNRGENSCKATGQVCHALCSPEGCWGPEPRDCVSCRNVSRGRECVDKCNLLEGEPREFVENSECIQCHPECLPQAMNITCTGRGPDNCIQCAHYIDGPHCVKTCPAGVMGENNTLVWKYADAGHVCHLCHPNCTYGCTGPGLEGCPTNGPKIPSIATGMVGALLLLLVVALGIGLFMRRRHIVRKRTLRRLLQERELVEPLTPSGEAPNQALLRILKETEFKKIKVLGSGAFGTVYKGLWIPEGEKVKIPVAIKELREATSPKANKEILDEAYVMASVDNPHVCRLLGICLTSTVQLITQLMPFGCLLDYVREHKDNIGSQYLLNWCVQIAKGMNYLEDRRLVHRDLAARNVLVKTPQHVKITDFGLAKLLGAEEKEYHAEGGKVPIKWMALESILHRIYTHQSDVWSYGVTVWELMTFGSKPYDGIPASEISSILEKGERLPQPPICTIDVYMIMVKCWMIDADSRPKFRELIIEFSKMARDPQRYLVIQGDERMHLPSPTDSNFYRALMDEEDMDDVVDADEYLIPQQGFFSSPSTSRTPLLSSLSATSNNSTVACIDRNGLQSCPIKEDSFLQRYSSDPTGALTEDSIDDTFLPVPEYINQSVPKRPAGSVQNPVYHNQPLNPAPSRDPHYQDPHSTAVGNPEYLNTVQPTCVNSTFDSPAHWAQKGSHQISLDNPDYQQDFFPKEAKPNGIFKGSTAENAEYLRVAPQSSEFIGA

> <PDB ID(s) of Target Chain>
1IVO,1M14,1M17,1MOX,1XKK,1Z9I,2GS2,2GS6,2ITW,2ITX,2ITY,2J5E,2J5F,2J6M,2RF9,2RGP,3B2V,3BEL,3GOP,3POZ,3QWQ,3VJO,3W2O,3W2P,3W2Q,3W2R,3W2S,3W32,3W33,4G5J,4I23,4JQ7,4JQ8,4JR3,4JRV,4KRO,4LI5,4RJ4,4RJ5,4RJ6,4RJ7,4RJ8,4TKS,4UIP,4UV7,4WKQ,4WRG,4ZAU,5C8K,5C8M,5C8N,5CAL,5CAN,5CAO,5CAP,5CAQ,5CAS,5CAU,5CAV,5EDP,5EDQ,5EDR,5EM5,5EM6,5EM7,5EM8,5FED,5GNK,5HCX,5HCY,5HCZ,5HIB,5HIC,5UGB,5WB7,5WB8,5Y25,6S89,6S8A

> <UniProt (SwissProt) Recommended Name of Target Chain>
Epidermal growth factor receptor

> <UniProt (SwissProt) Entry Name of Target Chain>
EGFR_HUMAN

> <UniProt (SwissProt) Primary ID of Target Chain>
P00533

> <UniProt (SwissProt) Secondary ID(s) of Target Chain>
O00688,O00732,P06268,Q14225,Q68GS5,Q92795,Q9BZS2,Q9GZX1,Q9H2C9,Q9H3C9,Q9UMD7,Q9UMD8,Q9UMG5

> <UniProt (SwissProt) Alternative ID(s) of Target Chain>


> <UniProt (TrEMBL) Submitted Name of Target Chain>


> <UniProt (TrEMBL) Entry Name of Target Chain>


> <UniProt (TrEMBL) Primary ID of Target Chain>


> <UniProt (TrEMBL) Secondary ID(s) of Target Chain>


> <UniProt (TrEMBL) Alternative ID(s) of Target Chain>


> <training label>
6.13668

> <i_lp_mmshare_version>
54117

> <s_epik_input>
W09IXVtDSDJdW0NAQEhdKE8xKVtDQEhdKFtPSF0pW0NAQEhdKFtPSF0pW0NASF0xbjJbY0hdbmMoYzIzKWMobltjSF1uMylTW0NIMl1jKFtjSF1bY0hdNClbY0hdW2NIXWM0SQ==

> <s_epik_cmdline>
J2VwaWtfcHl0aG9uJywgJy1waHQnLCAnMC4xJywgJy1waCcsICc3LjQnLCAnLXRuJywgJzgnLCAnLW1hJywgJzIwMCcsICctaW1hZScsICc8aW5maWxlLm1hZT4nLCAnLW9tYWUnLCAnPG91dGZpbGUubWFlPic=

> <r_lp_tautomer_probability>
1

> <r_epik_Ionization_Penalty>
  0.0001

> <r_epik_Ionization_Penalty_Charging>
  0.0000

> <r_epik_Ionization_Penalty_Neutral>
  0.0001

> <r_epik_State_Penalty>
  0.0000

> <r_epik_Charging_Adjusted_Penalty>
0

> <i_epik_Tot_Q>
0

> <i_epik_Tot_abs_Q>
0

> <i_f3d_flags>
0

> <s_lp_Force_Field>
OPLS_2005

> <r_lp_Energy>
40.397586

> <b_lp_Chiralities_Consistent>
1

> <s_lp_Variant>
BindingDB_50144606_mol_1-15

> <s_i_glide_gridfile>
struct_1_site_1

> <i_i_glide_lignum>
94

> <i_i_glide_rotatable_bonds>
8

> <r_i_docking_score>
-7.11736474688135

> <r_i_glide_ligand_efficiency>
-0.263606101736346

> <r_i_glide_ligand_efficiency_sa>
-0.790818304340236

> <r_i_glide_ligand_efficiency_ln>
-1.65680517414559

> <r_i_glide_gscore>
-7.11736474688135

> <r_i_glide_lipo>
-2.14184238026103

> <r_i_glide_hbond>
-0.381699636346936

> <r_i_glide_metal>
0

> <r_i_glide_rewards>
-1.92600449053607

> <r_i_glide_evdw>
-38.7629699707031

> <r_i_glide_ecoul>
-7.58357810974121

> <r_i_glide_erotb>
0.407866975259027

> <r_i_glide_esite>
0

> <r_i_glide_emodel>
-40.2731365469484

> <r_i_glide_energy>
-46.3465480804443

> <r_i_glide_einternal>
7.03962230682373

> <i_i_glide_confnum>
321

> <i_i_glide_posenum>
111

> <r_i_glide_eff_state_penalty>
0

> <PMID>
26826581

> <s_epik_Chemistry_Notes>
This compound contains an acetal/aminal-like group ( X-CH(R)-Y where X, Y are N, S, or O) that may be acid/base labile, releasing an aldehyde.

> <r_glide_shape_similarity>
0.753801345825195

> <s_m_subgroup_title>
505 training

> <s_m_subgroupid>
pocket_pv

> <b_m_subgroup_collapsed>
0

$$$$
BindingDB_3558_mol_1
                    3D
 Schrodinger Suite 2021-2.
 54 56  0  0  1  0            999 V2000
   21.5186    0.6477   52.5163 C   0  0  0  0  0  0
   19.9119   -1.2048   53.8395 C   0  0  0  0  0  0
   22.0754   -0.1711   53.5091 C   0  0  0  0  0  0
   21.2721   -1.1128   54.1825 C   0  0  0  0  0  0
   23.4384   -0.0993   53.8692 C   0  0  0  0  0  0
   23.0946   -1.7375   55.4098 C   0  0  0  0  0  0
   23.9382   -0.8997   54.8243 N   0  0  0  0  0  0
   21.8033   -1.8949   55.1393 N   0  0  0  0  0  0
   24.2893    0.8468   53.2785 N   0  0  0  0  0  0
   23.8234    1.6209   52.8368 H   0  0  0  0  0  0
   25.6837    0.9473   53.3435 C   0  0  0  0  0  0
   27.6691    2.3590   53.4233 C   0  0  0  0  0  0
   26.2730    2.2234   53.3697 C   0  0  0  0  0  0
   26.5150   -0.1889   53.3339 C   0  0  0  0  0  0
   28.4908    1.2240   53.4376 C   0  0  0  0  0  0
   27.9109   -0.0501   53.3829 C   0  0  0  0  0  0
   29.0158   -1.5896   53.3745 Br  0  0  0  0  0  0
   20.1683    0.5232   52.1451 C   0  0  0  0  0  0
   19.3501   -0.3885   52.8303 C   0  0  0  0  0  0
   19.6227    1.2570   51.1195 O   0  0  0  0  0  0
   20.5258    1.7343   50.1328 C   0  0  0  0  0  0
   18.0375   -0.4323   52.4329 O   0  0  0  0  0  0
   17.1418   -1.2299   53.1736 C   0  0  0  0  0  0
   15.7370   -1.1343   52.5708 C   0  0  0  0  0  0
   19.8300    1.9312   48.7957 C   0  0  0  0  0  0
   15.0260    0.1914   52.8280 C   0  0  0  0  0  0
   15.5601    1.3213   51.9530 C   0  0  0  0  0  0
   18.9506    3.1687   48.6846 C   0  0  0  0  0  0
   17.5719    2.9737   49.2974 C   0  0  0  0  0  0
   22.1461    1.3689   52.0184 H   0  0  0  0  0  0
   19.3108   -1.9164   54.3832 H   0  0  0  0  0  0
   23.5060   -2.3781   56.1752 H   0  0  0  0  0  0
   28.1081    3.3461   53.4548 H   0  0  0  0  0  0
   25.6617    3.1154   53.3609 H   0  0  0  0  0  0
   26.0889   -1.1801   53.2840 H   0  0  0  0  0  0
   29.5661    1.3332   53.4794 H   0  0  0  0  0  0
   21.3167    1.0029   49.9550 H   0  0  0  0  0  0
   20.9983    2.6603   50.4626 H   0  0  0  0  0  0
   17.4636   -2.2714   53.1308 H   0  0  0  0  0  0
   17.1258   -0.9273   54.2218 H   0  0  0  0  0  0
   15.7693   -1.3516   51.5026 H   0  0  0  0  0  0
   15.1322   -1.9252   53.0158 H   0  0  0  0  0  0
   19.2493    1.0424   48.5747 H   0  0  0  0  0  0
   20.5975    1.9963   48.0242 H   0  0  0  0  0  0
   13.9641    0.0659   52.6137 H   0  0  0  0  0  0
   15.0879    0.4605   53.8815 H   0  0  0  0  0  0
   14.9809    2.2319   52.1068 H   0  0  0  0  0  0
   16.5986    1.5594   52.1745 H   0  0  0  0  0  0
   15.4954    1.0667   50.8951 H   0  0  0  0  0  0
   18.8162    3.4034   47.6279 H   0  0  0  0  0  0
   19.4446    4.0346   49.1259 H   0  0  0  0  0  0
   16.9499    3.8531   49.1277 H   0  0  0  0  0  0
   17.6341    2.8217   50.3742 H   0  0  0  0  0  0
   17.0599    2.1163   48.8617 H   0  0  0  0  0  0
  1  3  1  0  0  0
  1 18  2  0  0  0
  1 30  1  0  0  0
  2  4  1  0  0  0
  2 19  2  0  0  0
  2 31  1  0  0  0
  3  4  1  0  0  0
  3  5  2  0  0  0
  4  8  2  0  0  0
  5  7  1  0  0  0
  5  9  1  0  0  0
  6  7  2  0  0  0
  6  8  1  0  0  0
  6 32  1  0  0  0
  9 10  1  0  0  0
  9 11  1  0  0  0
 11 13  2  0  0  0
 11 14  1  0  0  0
 12 13  1  0  0  0
 12 15  2  0  0  0
 12 33  1  0  0  0
 13 34  1  0  0  0
 14 16  2  0  0  0
 14 35  1  0  0  0
 15 16  1  0  0  0
 15 36  1  0  0  0
 16 17  1  0  0  0
 18 19  1  0  0  0
 18 20  1  0  0  0
 19 22  1  0  0  0
 20 21  1  0  0  0
 21 25  1  0  0  0
 21 37  1  0  0  0
 21 38  1  0  0  0
 22 23  1  0  0  0
 23 24  1  0  0  0
 23 39  1  0  0  0
 23 40  1  0  0  0
 24 26  1  0  0  0
 24 41  1  0  0  0
 24 42  1  0  0  0
 25 28  1  0  0  0
 25 43  1  0  0  0
 25 44  1  0  0  0
 26 27  1  0  0  0
 26 45  1  0  0  0
 26 46  1  0  0  0
 27 47  1  0  0  0
 27 48  1  0  0  0
 27 49  1  0  0  0
 28 29  1  0  0  0
 28 50  1  0  0  0
 28 51  1  0  0  0
 29 52  1  0  0  0
 29 53  1  0  0  0
 29 54  1  0  0  0
M  END
> <s_m_entry_id>
369

> <s_m_entry_name>
pocket_pv.180

> <s_m_Source_Path>
/home/bortolaa/Project/GT/mario-master/docking/set505protein_struct_1_site_1_set505ligs_train

> <s_m_Source_File>
pocket_pv.maegz

> <i_m_Source_File_Index>
180

> <From>
www.bindingDB.org

> <BindingDB Reactant_set_id>
5320

> <Ligand InChI>
InChI=1S/C22H26BrN3O2/c1-3-5-10-27-20-13-18-19(14-21(20)28-11-6-4-2)24-15-25-22(18)26-17-9-7-8-16(23)12-17/h7-9,12-15H,3-6,10-11H2,1-2H3,(H,24,25,26)

> <Ligand InChI Key>
LTADRFUOHQNUCZ-UHFFFAOYSA-N

> <BindingDB MonomerID>
3558

> <BindingDB Ligand Name>
CHEMBL318736::N-(3-bromophenyl)-6,7-dibutoxyquinazolin-4-amine::PD153035 Analog 58

> <Target Name Assigned by Curator or DataSource>
Epidermal growth factor receptor

> <Target Source Organism According to Curator or DataSource>
Homo sapiens

> <Ki (nM)>


> <Kd (nM)>


> <EC50 (nM)>


> <kon (M-1-s-1)>


> <koff (s-1)>


> <pH>


> <Temp C>


> <Curation/DataSource>
Curated from the literature by BindingDB

> <Article DOI>
10.1021/bi060184f

> <PMID>


> <PubChem AID>


> <Patent Number>


> <Authors>
Bridges, AJ; Zhou, HR; Cody, DR; Rewcastle, GW; McMichael, A; Showalter, HH; Fry, DW; Kraker, AJ; Denny, WA

> <Institution>
Parke-Davis Pharmaceutical Research

> <Link to Ligand in BindingDB>
http://www.bindingdb.org/bind/chemsearch/marvin/MolStructure.jsp?monomerid=3558

> <Link to Ligand-Target Pair in BindingDB>
http://www.bindingdb.org/jsp/dbsearch/PrimarySearch_ki.jsp?energyterm=kJ/mole&tag=r21&monomerid=3558&enzyme=Epidermal+growth+factor+receptor&column=ki&startPg=0&Increment=50&submit=Search

> <Ligand HET ID in PDB>


> <PDB ID(s) for Ligand-Target Complex>


> <PubChem CID>
5328222

> <PubChem SID>
8033281

> <ChEBI ID of Ligand>


> <ChEMBL ID of Ligand>
CHEMBL318736

> <DrugBank ID of Ligand>


> <IUPHAR_GRAC ID of Ligand>


> <KEGG ID of Ligand>


> <ZINC ID of Ligand>
ZINC03815275

> <Number of Protein Chains in Target (>
1

> <BindingDB Target Chain Sequence>
MRPSGTAGAALLALLAALCPASRALEEKKVCQGTSNKLTQLGTFEDHFLSLQRMFNNCEVVLGNLEITYVQRNYDLSFLKTIQEVAGYVLIALNTVERIPLENLQIIRGNMYYENSYALAVLSNYDANKTGLKELPMRNLQEILHGAVRFSNNPALCNVESIQWRDIVSSDFLSNMSMDFQNHLGSCQKCDPSCPNGSCWGAGEENCQKLTKIICAQQCSGRCRGKSPSDCCHNQCAAGCTGPRESDCLVCRKFRDEATCKDTCPPLMLYNPTTYQMDVNPEGKYSFGATCVKKCPRNYVVTDHGSCVRACGADSYEMEEDGVRKCKKCEGPCRKVCNGIGIGEFKDSLSINATNIKHFKNCTSISGDLHILPVAFRGDSFTHTPPLDPQELDILKTVKEITGFLLIQAWPENRTDLHAFENLEIIRGRTKQHGQFSLAVVSLNITSLGLRSLKEISDGDVIISGNKNLCYANTINWKKLFGTSGQKTKIISNRGENSCKATGQVCHALCSPEGCWGPEPRDCVSCRNVSRGRECVDKCNLLEGEPREFVENSECIQCHPECLPQAMNITCTGRGPDNCIQCAHYIDGPHCVKTCPAGVMGENNTLVWKYADAGHVCHLCHPNCTYGCTGPGLEGCPTNGPKIPSIATGMVGALLLLLVVALGIGLFMRRRHIVRKRTLRRLLQERELVEPLTPSGEAPNQALLRILKETEFKKIKVLGSGAFGTVYKGLWIPEGEKVKIPVAIKELREATSPKANKEILDEAYVMASVDNPHVCRLLGICLTSTVQLITQLMPFGCLLDYVREHKDNIGSQYLLNWCVQIAKGMNYLEDRRLVHRDLAARNVLVKTPQHVKITDFGLAKLLGAEEKEYHAEGGKVPIKWMALESILHRIYTHQSDVWSYGVTVWELMTFGSKPYDGIPASEISSILEKGERLPQPPICTIDVYMIMVKCWMIDADSRPKFRELIIEFSKMARDPQRYLVIQGDERMHLPSPTDSNFYRALMDEEDMDDVVDADEYLIPQQGFFSSPSTSRTPLLSSLSATSNNSTVACIDRNGLQSCPIKEDSFLQRYSSDPTGALTEDSIDDTFLPVPEYINQSVPKRPAGSVQNPVYHNQPLNPAPSRDPHYQDPHSTAVGNPEYLNTVQPTCVNSTFDSPAHWAQKGSHQISLDNPDYQQDFFPKEAKPNGIFKGSTAENAEYLRVAPQSSEFIGA

> <PDB ID(s) of Target Chain>
1IVO,1M14,1M17,1MOX,1XKK,1Z9I,2GS2,2GS6,2ITW,2ITX,2ITY,2J5E,2J5F,2J6M,2RF9,2RGP,3B2V,3BEL,3GOP,3POZ,3QWQ,3VJO,3W2O,3W2P,3W2Q,3W2R,3W2S,3W32,3W33,4G5J,4I23,4JQ7,4JQ8,4JR3,4JRV,4KRO,4LI5,4RJ4,4RJ5,4RJ6,4RJ7,4RJ8,4TKS,4UIP,4UV7,4WKQ,4WRG,4ZAU,5C8K,5C8M,5C8N,5CAL,5CAN,5CAO,5CAP,5CAQ,5CAS,5CAU,5CAV,5EDP,5EDQ,5EDR,5EM5,5EM6,5EM7,5EM8,5FED,5GNK,5HCX,5HCY,5HCZ,5HIB,5HIC,5UGB,5WB7,5WB8,5Y25,6S89,6S8A

> <UniProt (SwissProt) Recommended Name of Target Chain>
Epidermal growth factor receptor

> <UniProt (SwissProt) Entry Name of Target Chain>
EGFR_HUMAN

> <UniProt (SwissProt) Primary ID of Target Chain>
P00533

> <UniProt (SwissProt) Secondary ID(s) of Target Chain>
O00688,O00732,P06268,Q14225,Q68GS5,Q92795,Q9BZS2,Q9GZX1,Q9H2C9,Q9H3C9,Q9UMD7,Q9UMD8,Q9UMG5

> <UniProt (SwissProt) Alternative ID(s) of Target Chain>


> <UniProt (TrEMBL) Submitted Name of Target Chain>


> <UniProt (TrEMBL) Entry Name of Target Chain>


> <UniProt (TrEMBL) Primary ID of Target Chain>


> <UniProt (TrEMBL) Secondary ID(s) of Target Chain>


> <UniProt (TrEMBL) Alternative ID(s) of Target Chain>


> <training label>
6.97881

> <i_lp_mmshare_version>
54117

> <s_epik_input>
W0NIM11bQ0gyXVtDSDJdW0NIMl1PYyhbY0hdMSljKE9bQ0gyXVtDSDJdW0NIMl1bQ0gzXSlbY0hdYyhjMTIpbltjSF1uYzJbTkhdYzNbY0hdW2NIXVtjSF1jKEJyKVtjSF0z

> <s_epik_cmdline>
J2VwaWtfcHl0aG9uJywgJy1waHQnLCAnMC4xJywgJy1waCcsICc3LjQnLCAnLXRuJywgJzgnLCAnLW1hJywgJzIwMCcsICctaW1hZScsICc8aW5maWxlLm1hZT4nLCAnLW9tYWUnLCAnPG91dGZpbGUubWFlPic=

> <r_lp_tautomer_probability>
1

> <r_epik_Ionization_Penalty>
  0.0017

> <r_epik_Ionization_Penalty_Charging>
  0.0000

> <r_epik_Ionization_Penalty_Neutral>
  0.0017

> <r_epik_State_Penalty>
  0.0000

> <r_epik_Charging_Adjusted_Penalty>
0

> <i_epik_Tot_Q>
0

> <i_epik_Tot_abs_Q>
0

> <i_f3d_flags>
0

> <s_lp_Force_Field>
OPLS_2005

> <r_lp_Energy>
19.964142

> <b_lp_Chiralities_Consistent>
1

> <s_lp_Variant>
BindingDB_3558_mol_1-1

> <s_i_glide_gridfile>
struct_1_site_1

> <i_i_glide_lignum>
153

> <i_i_glide_rotatable_bonds>
10

> <r_i_docking_score>
-7.10672312090034

> <r_i_glide_ligand_efficiency>
-0.253811540032155

> <r_i_glide_ligand_efficiency_sa>
-0.770721322540353

> <r_i_glide_ligand_efficiency_ln>
-1.64044035876158

> <r_i_glide_gscore>
-7.10672312090034

> <r_i_glide_lipo>
-3.03069042050267

> <r_i_glide_hbond>
-0.32

> <r_i_glide_metal>
0

> <r_i_glide_rewards>
-1.53829742061572

> <r_i_glide_evdw>
-44.6266250610352

> <r_i_glide_ecoul>
-5.311119556427

> <r_i_glide_erotb>
0.810263906733863

> <r_i_glide_esite>
0

> <r_i_glide_emodel>
-64.912750698159

> <r_i_glide_energy>
-49.9377446174622

> <r_i_glide_einternal>
4.42321443557739

> <i_i_glide_confnum>
87

> <i_i_glide_posenum>
281

> <r_i_glide_eff_state_penalty>
0

> <IC50 (nM)>
105

> <r_glide_shape_similarity>
0.931649625301361

> <s_m_subgroup_title>
505 training

> <s_m_subgroupid>
pocket_pv

> <b_m_subgroup_collapsed>
0

$$$$
BindingDB_50102084_mol_1
                    3D
 Schrodinger Suite 2021-2.
 54 56  0  0  1  0            999 V2000
   22.0731   -0.1723   53.5089 C   0  0  0  0  0  0
   23.4408   -0.1009   53.8728 C   0  0  0  0  0  0
   21.2626   -1.1215   54.1869 C   0  0  0  0  0  0
   21.5202    0.6493   52.5074 C   0  0  0  0  0  0
   23.9442   -0.9082   54.8319 N   0  0  0  0  0  0
   19.8909   -1.2085   53.8416 C   0  0  0  0  0  0
   24.2873    0.8516   53.2754 N   0  0  0  0  0  0
   20.1627    0.5255   52.1372 C   0  0  0  0  0  0
   19.3231   -0.3814   52.8296 C   0  0  0  0  0  0
   27.9146   -0.0739   53.3860 C   0  0  0  0  0  0
   21.8000   -1.9089   55.1473 N   0  0  0  0  0  0
   26.5118   -0.2009   53.3288 C   0  0  0  0  0  0
   23.0985   -1.7533   55.4188 C   0  0  0  0  0  0
   25.6842    0.9495   53.3404 C   0  0  0  0  0  0
   28.4944    1.2122   53.4594 C   0  0  0  0  0  0
   17.4695    3.2390   48.5111 C   0  0  0  0  0  0
   27.6775    2.3652   53.4307 C   0  0  0  0  0  0
   28.9116   -1.4925   53.3743 Cl  0  0  0  0  0  0
   18.7888    3.1392   49.2079 N   0  3  0  0  0  0
   26.2746    2.2346   53.3691 C   0  0  0  0  0  0
   29.8365    1.3279   53.5824 F   0  0  0  0  0  0
   17.9913   -0.3966   52.4429 O   0  0  0  0  0  0
   19.6353    1.2615   51.1000 O   0  0  0  0  0  0
   16.7989    4.5705   48.9565 C   0  0  0  0  0  0
   16.5400    2.0592   48.9276 C   0  0  0  0  0  0
   17.6712    3.2603   46.9684 C   0  0  0  0  0  0
   19.6667    2.0000   48.8417 C   0  0  0  0  0  0
   20.5294    1.6066   50.0367 C   0  0  0  0  0  0
   17.0577   -1.1426   53.2128 C   0  0  0  0  0  0
   22.1513    1.3603   52.0010 H   0  0  0  0  0  0
   19.2797   -1.9161   54.3803 H   0  0  0  0  0  0
   23.8200    1.6293   52.8319 H   0  0  0  0  0  0
   26.0780   -1.1887   53.2727 H   0  0  0  0  0  0
   23.5127   -2.4005   56.1765 H   0  0  0  0  0  0
   28.1248    3.3477   53.4781 H   0  0  0  0  0  0
   19.3101    3.9972   49.0605 H   0  0  0  0  0  0
   25.6645    3.1272   53.3614 H   0  0  0  0  0  0
   15.8295    4.7097   48.4748 H   0  0  0  0  0  0
   17.4110    5.4374   48.7021 H   0  0  0  0  0  0
   16.6302    4.5959   50.0337 H   0  0  0  0  0  0
   16.9053    1.0953   48.5818 H   0  0  0  0  0  0
   16.4269    2.0002   50.0115 H   0  0  0  0  0  0
   15.5409    2.1830   48.5057 H   0  0  0  0  0  0
   18.1153    2.3361   46.6001 H   0  0  0  0  0  0
   16.7175    3.3811   46.4540 H   0  0  0  0  0  0
   18.3152    4.0845   46.6600 H   0  0  0  0  0  0
   19.0738    1.1340   48.5748 H   0  0  0  0  0  0
   20.2765    2.2574   47.9755 H   0  0  0  0  0  0
   21.1645    0.7608   49.7658 H   0  0  0  0  0  0
   21.1712    2.4402   50.3250 H   0  0  0  0  0  0
   16.0477   -0.9517   52.8503 H   0  0  0  0  0  0
   17.2471   -2.2132   53.1251 H   0  0  0  0  0  0
   17.0916   -0.8652   54.2667 H   0  0  0  0  0  0
   18.5907    3.0554   50.2011 H   0  0  0  0  0  0
  1  2  2  0  0  0
  1  3  1  0  0  0
  1  4  1  0  0  0
  2  5  1  0  0  0
  2  7  1  0  0  0
  3  6  1  0  0  0
  3 11  2  0  0  0
  4  8  2  0  0  0
  4 30  1  0  0  0
  5 13  2  0  0  0
  6  9  2  0  0  0
  6 31  1  0  0  0
  7 14  1  0  0  0
  7 32  1  0  0  0
  8  9  1  0  0  0
  8 23  1  0  0  0
  9 22  1  0  0  0
 10 12  2  0  0  0
 10 15  1  0  0  0
 10 18  1  0  0  0
 11 13  1  0  0  0
 12 14  1  0  0  0
 12 33  1  0  0  0
 13 34  1  0  0  0
 14 20  2  0  0  0
 15 17  2  0  0  0
 15 21  1  0  0  0
 16 19  1  0  0  0
 16 24  1  0  0  0
 16 25  1  0  0  0
 16 26  1  0  0  0
 17 20  1  0  0  0
 17 35  1  0  0  0
 19 27  1  0  0  0
 19 36  1  0  0  0
 19 54  1  0  0  0
 20 37  1  0  0  0
 22 29  1  0  0  0
 23 28  1  0  0  0
 24 38  1  0  0  0
 24 39  1  0  0  0
 24 40  1  0  0  0
 25 41  1  0  0  0
 25 42  1  0  0  0
 25 43  1  0  0  0
 26 44  1  0  0  0
 26 45  1  0  0  0
 26 46  1  0  0  0
 27 28  1  0  0  0
 27 47  1  0  0  0
 27 48  1  0  0  0
 28 49  1  0  0  0
 28 50  1  0  0  0
 29 51  1  0  0  0
 29 52  1  0  0  0
 29 53  1  0  0  0
M  CHG  1  19   1
M  END
> <s_m_entry_id>
370

> <s_m_entry_name>
pocket_pv.181

> <s_m_Source_Path>
/home/bortolaa/Project/GT/mario-master/docking/set505protein_struct_1_site_1_set505ligs_train

> <s_m_Source_File>
pocket_pv.maegz

> <i_m_Source_File_Index>
181

> <From>
www.bindingDB.org

> <BindingDB Reactant_set_id>
50733039

> <Ligand InChI>
InChI=1S/C21H24ClFN4O2/c1-21(2,3)26-7-8-29-19-10-14-17(11-18(19)28-4)24-12-25-20(14)27-13-5-6-16(23)15(22)9-13/h5-6,9-12,26H,7-8H2,1-4H3,(H,24,25,27)

> <Ligand InChI Key>
CMKLELUFUHIGLT-UHFFFAOYSA-N

> <BindingDB MonomerID>
50102084

> <BindingDB Ligand Name>
CHEMBL57892::[6-(2-tert-Butylamino-ethoxy)-7-methoxy-quinazolin-4-yl]-(3-chloro-4-fluoro-phenyl)-amine

> <Target Name Assigned by Curator or DataSource>
Epidermal growth factor receptor

> <Target Source Organism According to Curator or DataSource>
Homo sapiens

> <Ki (nM)>


> <Kd (nM)>


> <EC50 (nM)>


> <kon (M-1-s-1)>


> <koff (s-1)>


> <pH>


> <Temp C>


> <Curation/DataSource>
ChEMBL

> <Article DOI>
10.1016/s0960-894x(01)00344-4

> <PubChem AID>


> <Patent Number>


> <Authors>
Barker, AJ; Gibson, KH; Grundy, W; Godfrey, AA; Barlow, JJ; Healy, MP; Woodburn, JR; Ashton, SE; Curry, BJ; Scarlett, L; Henthorn, L; Richards, L

> <Institution>
AstraZeneca

> <Link to Ligand in BindingDB>
http://www.bindingdb.org/bind/chemsearch/marvin/MolStructure.jsp?monomerid=50102084

> <Link to Ligand-Target Pair in BindingDB>
http://www.bindingdb.org/jsp/dbsearch/PrimarySearch_ki.jsp?energyterm=kJ/mole&tag=r21&monomerid=50102084&enzyme=Epidermal+growth+factor+receptor&column=ki&startPg=0&Increment=50&submit=Search

> <Ligand HET ID in PDB>


> <PDB ID(s) for Ligand-Target Complex>


> <PubChem CID>
44300050

> <PubChem SID>
103998641

> <ChEBI ID of Ligand>


> <ChEMBL ID of Ligand>
CHEMBL57892

> <DrugBank ID of Ligand>


> <IUPHAR_GRAC ID of Ligand>


> <KEGG ID of Ligand>


> <ZINC ID of Ligand>
ZINC29561374

> <Number of Protein Chains in Target (>
1

> <BindingDB Target Chain Sequence>
MRPSGTAGAALLALLAALCPASRALEEKKVCQGTSNKLTQLGTFEDHFLSLQRMFNNCEVVLGNLEITYVQRNYDLSFLKTIQEVAGYVLIALNTVERIPLENLQIIRGNMYYENSYALAVLSNYDANKTGLKELPMRNLQEILHGAVRFSNNPALCNVESIQWRDIVSSDFLSNMSMDFQNHLGSCQKCDPSCPNGSCWGAGEENCQKLTKIICAQQCSGRCRGKSPSDCCHNQCAAGCTGPRESDCLVCRKFRDEATCKDTCPPLMLYNPTTYQMDVNPEGKYSFGATCVKKCPRNYVVTDHGSCVRACGADSYEMEEDGVRKCKKCEGPCRKVCNGIGIGEFKDSLSINATNIKHFKNCTSISGDLHILPVAFRGDSFTHTPPLDPQELDILKTVKEITGFLLIQAWPENRTDLHAFENLEIIRGRTKQHGQFSLAVVSLNITSLGLRSLKEISDGDVIISGNKNLCYANTINWKKLFGTSGQKTKIISNRGENSCKATGQVCHALCSPEGCWGPEPRDCVSCRNVSRGRECVDKCNLLEGEPREFVENSECIQCHPECLPQAMNITCTGRGPDNCIQCAHYIDGPHCVKTCPAGVMGENNTLVWKYADAGHVCHLCHPNCTYGCTGPGLEGCPTNGPKIPSIATGMVGALLLLLVVALGIGLFMRRRHIVRKRTLRRLLQERELVEPLTPSGEAPNQALLRILKETEFKKIKVLGSGAFGTVYKGLWIPEGEKVKIPVAIKELREATSPKANKEILDEAYVMASVDNPHVCRLLGICLTSTVQLITQLMPFGCLLDYVREHKDNIGSQYLLNWCVQIAKGMNYLEDRRLVHRDLAARNVLVKTPQHVKITDFGLAKLLGAEEKEYHAEGGKVPIKWMALESILHRIYTHQSDVWSYGVTVWELMTFGSKPYDGIPASEISSILEKGERLPQPPICTIDVYMIMVKCWMIDADSRPKFRELIIEFSKMARDPQRYLVIQGDERMHLPSPTDSNFYRALMDEEDMDDVVDADEYLIPQQGFFSSPSTSRTPLLSSLSATSNNSTVACIDRNGLQSCPIKEDSFLQRYSSDPTGALTEDSIDDTFLPVPEYINQSVPKRPAGSVQNPVYHNQPLNPAPSRDPHYQDPHSTAVGNPEYLNTVQPTCVNSTFDSPAHWAQKGSHQISLDNPDYQQDFFPKEAKPNGIFKGSTAENAEYLRVAPQSSEFIGA

> <PDB ID(s) of Target Chain>
1IVO,1M14,1M17,1MOX,1XKK,1Z9I,2GS2,2GS6,2ITW,2ITX,2ITY,2J5E,2J5F,2J6M,2RF9,2RGP,3B2V,3BEL,3GOP,3POZ,3QWQ,3VJO,3W2O,3W2P,3W2Q,3W2R,3W2S,3W32,3W33,4G5J,4I23,4JQ7,4JQ8,4JR3,4JRV,4KRO,4LI5,4RJ4,4RJ5,4RJ6,4RJ7,4RJ8,4TKS,4UIP,4UV7,4WKQ,4WRG,4ZAU,5C8K,5C8M,5C8N,5CAL,5CAN,5CAO,5CAP,5CAQ,5CAS,5CAU,5CAV,5EDP,5EDQ,5EDR,5EM5,5EM6,5EM7,5EM8,5FED,5GNK,5HCX,5HCY,5HCZ,5HIB,5HIC,5UGB,5WB7,5WB8,5Y25,6S89,6S8A

> <UniProt (SwissProt) Recommended Name of Target Chain>
Epidermal growth factor receptor

> <UniProt (SwissProt) Entry Name of Target Chain>
EGFR_HUMAN

> <UniProt (SwissProt) Primary ID of Target Chain>
P00533

> <UniProt (SwissProt) Secondary ID(s) of Target Chain>
O00688,O00732,P06268,Q14225,Q68GS5,Q92795,Q9BZS2,Q9GZX1,Q9H2C9,Q9H3C9,Q9UMD7,Q9UMD8,Q9UMG5

> <UniProt (SwissProt) Alternative ID(s) of Target Chain>


> <UniProt (TrEMBL) Submitted Name of Target Chain>


> <UniProt (TrEMBL) Entry Name of Target Chain>


> <UniProt (TrEMBL) Primary ID of Target Chain>


> <UniProt (TrEMBL) Secondary ID(s) of Target Chain>


> <UniProt (TrEMBL) Alternative ID(s) of Target Chain>


> <training label>
7

> <i_lp_mmshare_version>
54117

> <s_epik_input>
W0NIM11DKFtDSDNdKShbQ0gzXSlbTkhdW0NIMl1bQ0gyXU9jKFtjSF0xKWMoT1tDSDNdKVtjSF1jKGMxMiluW2NIXW5jMltOSF1jKFtjSF1jM0NsKVtjSF1bY0hdYzNG

> <s_epik_cmdline>
J2VwaWtfcHl0aG9uJywgJy1waHQnLCAnMC4xJywgJy1waCcsICc3LjQnLCAnLXRuJywgJzgnLCAnLW1hJywgJzIwMCcsICctaW1hZScsICc8aW5maWxlLm1hZT4nLCAnLW9tYWUnLCAnPG91dGZpbGUubWFlPic=

> <r_lp_tautomer_probability>
1

> <r_epik_Ionization_Penalty>
  0.0067

> <r_epik_Ionization_Penalty_Charging>
  0.0064

> <r_epik_Ionization_Penalty_Neutral>
  0.0004

> <r_epik_State_Penalty>
  0.0000

> <r_epik_Charging_Adjusted_Penalty>
0.00637878532938816

> <i_epik_Tot_Q>
1

> <i_epik_Tot_abs_Q>
1

> <i_f3d_flags>
0

> <s_lp_Force_Field>
OPLS_2005

> <r_lp_Energy>
27.596109

> <b_lp_Chiralities_Consistent>
1

> <s_lp_Variant>
BindingDB_50102084_mol_1-1

> <s_i_glide_gridfile>
struct_1_site_1

> <i_i_glide_lignum>
160

> <i_i_glide_rotatable_bonds>
8

> <r_i_docking_score>
-7.08036756161598

> <r_i_glide_ligand_efficiency>
-0.244150605572965

> <r_i_glide_ligand_efficiency_sa>
-0.750108012661263

> <r_i_glide_ligand_efficiency_ln>
-1.62122462898006

> <r_i_glide_gscore>
-7.08036756161598

> <r_i_glide_lipo>
-2.92518589683167

> <r_i_glide_hbond>
-0.32

> <r_i_glide_metal>
0

> <r_i_glide_rewards>
-1.68936131177382

> <r_i_glide_evdw>
-41.6365089416504

> <r_i_glide_ecoul>
-4.47187852859497

> <r_i_glide_erotb>
0.673366992436592

> <r_i_glide_esite>
-0.0665801190753116

> <r_i_glide_emodel>
-58.3032838411246

> <r_i_glide_energy>
-46.1083874702454

> <r_i_glide_einternal>
6.08876943588257

> <i_i_glide_confnum>
102

> <i_i_glide_posenum>
111

> <r_i_glide_eff_state_penalty>
0

> <IC50 (nM)>
100

> <PMID>
11459659

> <r_glide_shape_similarity>
0.875258326530457

> <s_m_subgroup_title>
505 training

> <s_m_subgroupid>
pocket_pv

> <b_m_subgroup_collapsed>
0

$$$$
/home/bortolaa/Project/GT/mario-master/ligands/set505ligs_train.sdf:42
                    3D
 Schrodinger Suite 2021-2.
 70 73  0  0  1  0            999 V2000
   23.4252   -0.0887   53.8439 C   0  0  0  0  0  0
   24.7256    0.4370   53.6189 C   0  0  0  0  0  0
   25.7655   -0.0665   54.4372 C   0  0  0  0  0  0
   25.4887   -0.9398   55.4255 N   0  0  0  0  0  0
   24.2276   -1.3631   55.5599 C   0  0  0  0  0  0
   23.1921   -1.0030   54.8103 N   0  0  0  0  0  0
   27.0833    0.3907   54.2378 C   0  0  0  0  0  0
   27.3748    1.4017   53.2925 C   0  0  0  0  0  0
   26.3406    1.9111   52.4737 C   0  0  0  0  0  0
   25.0177    1.4274   52.6560 C   0  0  0  0  0  0
   26.6862    2.8580   51.5157 O   0  0  0  0  0  0
   25.6380    3.4535   50.7412 C   0  0  0  0  0  0
   28.6323    1.9333   53.1284 O   0  0  0  0  0  0
   29.5561    1.7731   54.1998 C   0  0  0  0  0  0
   22.3689    0.3739   53.0474 N   0  0  0  0  0  0
   21.0242    0.0007   52.9577 C   0  0  0  0  0  0
   20.3917   -0.9666   53.7768 C   0  0  0  0  0  0
   19.0288   -1.2415   53.6023 C   0  0  0  0  0  0
   18.2764   -0.5568   52.6240 C   0  0  0  0  0  0
   18.9045    0.3886   51.7813 C   0  0  0  0  0  0
   20.2726    0.6627   51.9590 C   0  0  0  0  0  0
   16.8983   -0.8688   52.5751 N   0  0  0  0  0  0
   15.8965   -0.0228   52.2962 C   0  0  0  0  0  0
   14.8263   -0.3220   53.0505 N   0  0  0  0  0  0
   15.9600    0.8746   51.4565 O   0  0  0  0  0  0
   13.5763    0.3357   53.1705 C   0  0  0  0  0  0
   13.2188    1.5277   52.4856 C   0  0  0  0  0  0
   11.9399    2.1015   52.6765 C   0  0  0  0  0  0
   11.0139    1.4960   53.5551 C   0  0  0  0  0  0
   11.3702    0.3159   54.2467 C   0  0  0  0  0  0
   12.6460   -0.2579   54.0556 C   0  0  0  0  0  0
   26.1758    4.2141   49.5067 C   0  0  0  0  0  0
   26.6891    5.5940   49.7747 N   0  3  0  0  0  0
   27.5775    6.0729   48.6648 C   0  0  0  0  0  0
   28.9688    5.4021   48.6399 C   0  0  0  0  0  0
   25.5857    6.5619   50.0914 C   0  0  0  0  0  0
   26.0582    7.9534   50.5751 C   0  0  0  0  0  0
   24.0306   -2.0662   56.3536 H   0  0  0  0  0  0
   27.8593   -0.0256   54.8626 H   0  0  0  0  0  0
   24.2100    1.8150   52.0604 H   0  0  0  0  0  0
   25.0094    2.6637   50.3249 H   0  0  0  0  0  0
   24.9994    4.0685   51.3773 H   0  0  0  0  0  0
   30.2885    2.5763   54.1758 H   0  0  0  0  0  0
   29.0889    1.8428   55.1823 H   0  0  0  0  0  0
   30.0872    0.8236   54.1185 H   0  0  0  0  0  0
   22.6316    1.0903   52.3917 H   0  0  0  0  0  0
   20.8967   -1.5159   54.5493 H   0  0  0  0  0  0
   18.5549   -1.9670   54.2486 H   0  0  0  0  0  0
   18.3612    0.9139   51.0081 H   0  0  0  0  0  0
   20.7436    1.3892   51.3151 H   0  0  0  0  0  0
   16.6378   -1.6414   53.1702 H   0  0  0  0  0  0
   14.9369   -1.0863   53.7058 H   0  0  0  0  0  0
   13.8960    2.0234   51.8104 H   0  0  0  0  0  0
   11.6638    3.0003   52.1502 H   0  0  0  0  0  0
   10.0316    1.9328   53.6882 H   0  0  0  0  0  0
   10.6642   -0.1490   54.9171 H   0  0  0  0  0  0
   12.9059   -1.1576   54.5881 H   0  0  0  0  0  0
   26.9381    3.5938   49.0448 H   0  0  0  0  0  0
   25.3836    4.2940   48.7585 H   0  0  0  0  0  0
   27.0775    5.9360   47.7070 H   0  0  0  0  0  0
   27.7675    7.1422   48.7579 H   0  0  0  0  0  0
   29.5930    5.8514   47.8647 H   0  0  0  0  0  0
   29.4824    5.5378   49.5972 H   0  0  0  0  0  0
   28.9106    4.3386   48.4127 H   0  0  0  0  0  0
   24.9380    6.6714   49.2240 H   0  0  0  0  0  0
   24.9653    6.1515   50.8853 H   0  0  0  0  0  0
   25.2125    8.5208   50.9732 H   0  0  0  0  0  0
   26.7967    7.8742   51.3749 H   0  0  0  0  0  0
   26.4808    8.5621   49.7744 H   0  0  0  0  0  0
   27.2671    5.5340   50.6248 H   0  0  0  0  0  0
  1  2  2  0  0  0
  1  6  1  0  0  0
  1 15  1  0  0  0
  2 10  1  0  0  0
  2  3  1  0  0  0
  3  4  2  0  0  0
  3  7  1  0  0  0
  4  5  1  0  0  0
  5  6  2  0  0  0
  5 38  1  0  0  0
  7  8  2  0  0  0
  7 39  1  0  0  0
  8  9  1  0  0  0
  8 13  1  0  0  0
  9 10  2  0  0  0
  9 11  1  0  0  0
 10 40  1  0  0  0
 11 12  1  0  0  0
 12 32  1  0  0  0
 12 41  1  0  0  0
 12 42  1  0  0  0
 13 14  1  0  0  0
 14 43  1  0  0  0
 14 44  1  0  0  0
 14 45  1  0  0  0
 15 16  1  0  0  0
 15 46  1  0  0  0
 16 17  2  0  0  0
 16 21  1  0  0  0
 17 18  1  0  0  0
 17 47  1  0  0  0
 18 19  2  0  0  0
 18 48  1  0  0  0
 19 20  1  0  0  0
 19 22  1  0  0  0
 20 21  2  0  0  0
 20 49  1  0  0  0
 21 50  1  0  0  0
 22 23  1  0  0  0
 22 51  1  0  0  0
 23 24  1  0  0  0
 23 25  2  0  0  0
 24 26  1  0  0  0
 24 52  1  0  0  0
 26 27  2  0  0  0
 26 31  1  0  0  0
 27 28  1  0  0  0
 27 53  1  0  0  0
 28 29  2  0  0  0
 28 54  1  0  0  0
 29 30  1  0  0  0
 29 55  1  0  0  0
 30 31  2  0  0  0
 30 56  1  0  0  0
 31 57  1  0  0  0
 32 33  1  0  0  0
 32 58  1  0  0  0
 32 59  1  0  0  0
 33 34  1  0  0  0
 33 36  1  0  0  0
 33 70  1  0  0  0
 34 35  1  0  0  0
 34 60  1  0  0  0
 34 61  1  0  0  0
 35 62  1  0  0  0
 35 63  1  0  0  0
 35 64  1  0  0  0
 36 37  1  0  0  0
 36 65  1  0  0  0
 36 66  1  0  0  0
 37 67  1  0  0  0
 37 68  1  0  0  0
 37 69  1  0  0  0
M  CHG  1  33   1
M  END
> <s_m_entry_id>
371

> <s_m_entry_name>
pocket_pv.182

> <s_m_Source_Path>
/home/bortolaa/Project/GT/mario-master/docking/set505protein_struct_1_site_1_set505ligs_train

> <s_m_Source_File>
pocket_pv.maegz

> <i_m_Source_File_Index>
182

> <From>
www.bindingDB.org

> <BindingDB Reactant_set_id>
406586

> <Ligand InChI>
InChI=1S/C28H32N6O3/c1-4-34(5-2)15-16-37-26-17-23-24(18-25(26)36-3)29-19-30-27(23)31-21-11-13-22(14-12-21)33-28(35)32-20-9-7-6-8-10-20/h6-14,17-19H,4-5,15-16H2,1-3H3,(H,29,30,31)(H2,32,33,35)

> <Ligand InChI Key>
OYEPTZVAPJDGOW-UHFFFAOYSA-N

> <BindingDB MonomerID>
233101

> <BindingDB Ligand Name>
N-{4-[6-(2-Diethylaminoethoxy)-7-methoxy-quinazolin-4-ylamino]phenyl}-N&#39;-phenylurea hydrochloride (19d)

> <Target Name Assigned by Curator or DataSource>
Epidermal growth factor receptor

> <Target Source Organism According to Curator or DataSource>
Homo sapiens

> <Ki (nM)>


> <IC50 (nM)>
4300

> <Kd (nM)>


> <EC50 (nM)>


> <kon (M-1-s-1)>


> <koff (s-1)>


> <Temp C>


> <Curation/DataSource>
Curated from the literature by BindingDB

> <Article DOI>
10.3109/14756360903169485

> <PubChem AID>


> <Patent Number>


> <Authors>
Garofalo, A; Goossens, L; Lemoine, A; Farce, A; Arlot, Y; Depreux, P

> <Institution>
Université Lille Nord de France

> <Link to Ligand in BindingDB>
http://www.bindingdb.org/bind/chemsearch/marvin/MolStructure.jsp?monomerid=233101

> <Link to Ligand-Target Pair in BindingDB>
http://www.bindingdb.org/jsp/dbsearch/PrimarySearch_ki.jsp?energyterm=kJ/mole&tag=r21&monomerid=233101&enzyme=Epidermal+growth+factor+receptor&column=ki&startPg=0&Increment=50&submit=Search

> <Ligand HET ID in PDB>


> <PDB ID(s) for Ligand-Target Complex>


> <PubChem CID>
129010600

> <PubChem SID>
340093195

> <ChEBI ID of Ligand>


> <ChEMBL ID of Ligand>


> <DrugBank ID of Ligand>


> <IUPHAR_GRAC ID of Ligand>


> <KEGG ID of Ligand>


> <ZINC ID of Ligand>


> <Number of Protein Chains in Target (>
1

> <BindingDB Target Chain Sequence>
MRPSGTAGAALLALLAALCPASRALEEKKVCQGTSNKLTQLGTFEDHFLSLQRMFNNCEVVLGNLEITYVQRNYDLSFLKTIQEVAGYVLIALNTVERIPLENLQIIRGNMYYENSYALAVLSNYDANKTGLKELPMRNLQEILHGAVRFSNNPALCNVESIQWRDIVSSDFLSNMSMDFQNHLGSCQKCDPSCPNGSCWGAGEENCQKLTKIICAQQCSGRCRGKSPSDCCHNQCAAGCTGPRESDCLVCRKFRDEATCKDTCPPLMLYNPTTYQMDVNPEGKYSFGATCVKKCPRNYVVTDHGSCVRACGADSYEMEEDGVRKCKKCEGPCRKVCNGIGIGEFKDSLSINATNIKHFKNCTSISGDLHILPVAFRGDSFTHTPPLDPQELDILKTVKEITGFLLIQAWPENRTDLHAFENLEIIRGRTKQHGQFSLAVVSLNITSLGLRSLKEISDGDVIISGNKNLCYANTINWKKLFGTSGQKTKIISNRGENSCKATGQVCHALCSPEGCWGPEPRDCVSCRNVSRGRECVDKCNLLEGEPREFVENSECIQCHPECLPQAMNITCTGRGPDNCIQCAHYIDGPHCVKTCPAGVMGENNTLVWKYADAGHVCHLCHPNCTYGCTGPGLEGCPTNGPKIPSIATGMVGALLLLLVVALGIGLFMRRRHIVRKRTLRRLLQERELVEPLTPSGEAPNQALLRILKETEFKKIKVLGSGAFGTVYKGLWIPEGEKVKIPVAIKELREATSPKANKEILDEAYVMASVDNPHVCRLLGICLTSTVQLITQLMPFGCLLDYVREHKDNIGSQYLLNWCVQIAKGMNYLEDRRLVHRDLAARNVLVKTPQHVKITDFGLAKLLGAEEKEYHAEGGKVPIKWMALESILHRIYTHQSDVWSYGVTVWELMTFGSKPYDGIPASEISSILEKGERLPQPPICTIDVYMIMVKCWMIDADSRPKFRELIIEFSKMARDPQRYLVIQGDERMHLPSPTDSNFYRALMDEEDMDDVVDADEYLIPQQGFFSSPSTSRTPLLSSLSATSNNSTVACIDRNGLQSCPIKEDSFLQRYSSDPTGALTEDSIDDTFLPVPEYINQSVPKRPAGSVQNPVYHNQPLNPAPSRDPHYQDPHSTAVGNPEYLNTVQPTCVNSTFDSPAHWAQKGSHQISLDNPDYQQDFFPKEAKPNGIFKGSTAENAEYLRVAPQSSEFIGA

> <PDB ID(s) of Target Chain>
1IVO,1M14,1M17,1MOX,1XKK,1Z9I,2GS2,2GS6,2ITW,2ITX,2ITY,2J5E,2J5F,2J6M,2RF9,2RGP,3B2V,3BEL,3GOP,3POZ,3QWQ,3VJO,3W2O,3W2P,3W2Q,3W2R,3W2S,3W32,3W33,4G5J,4I23,4JQ7,4JQ8,4JR3,4JRV,4KRO,4LI5,4RJ4,4RJ5,4RJ6,4RJ7,4RJ8,4TKS,4UIP,4UV7,4WKQ,4WRG,4ZAU,5C8K,5C8M,5C8N,5CAL,5CAN,5CAO,5CAP,5CAQ,5CAS,5CAU,5CAV,5EDP,5EDQ,5EDR,5EM5,5EM6,5EM7,5EM8,5FED,5GNK,5HCX,5HCY,5HCZ,5HIB,5HIC,5UGB,5WB7,5WB8,5Y25,6S89,6S8A

> <UniProt (SwissProt) Recommended Name of Target Chain>
Epidermal growth factor receptor

> <UniProt (SwissProt) Entry Name of Target Chain>
EGFR_HUMAN

> <UniProt (SwissProt) Primary ID of Target Chain>
P00533

> <UniProt (SwissProt) Secondary ID(s) of Target Chain>
O00688,O00732,P06268,Q14225,Q68GS5,Q92795,Q9BZS2,Q9GZX1,Q9H2C9,Q9H3C9,Q9UMD7,Q9UMD8,Q9UMG5

> <UniProt (SwissProt) Alternative ID(s) of Target Chain>


> <UniProt (TrEMBL) Submitted Name of Target Chain>


> <UniProt (TrEMBL) Entry Name of Target Chain>


> <UniProt (TrEMBL) Primary ID of Target Chain>


> <UniProt (TrEMBL) Secondary ID(s) of Target Chain>


> <UniProt (TrEMBL) Alternative ID(s) of Target Chain>


> <training label>
5.36653

> <i_lp_mmshare_version>
54117

> <s_epik_input>
W0NIM11bQ0gyXU4oW0NIMl1bQ0gzXSlbQ0gyXVtDSDJdT2MoW2NIXTEpYyhPW0NIM10pW2NIXWMoYzEyKW5bY0hdbmMyW05IXWMzW2NIXVtjSF1jKFtjSF1bY0hdMylbTkhdQyg9TylbTkhdYzRbY0hdW2NIXVtjSF1bY0hdW2NIXTQ=

> <s_epik_cmdline>
J2VwaWtfcHl0aG9uJywgJy1waHQnLCAnMC4xJywgJy1waCcsICc3LjQnLCAnLXRuJywgJzgnLCAnLW1hJywgJzIwMCcsICctaW1hZScsICc8aW5maWxlLm1hZT4nLCAnLW9tYWUnLCAnPG91dGZpbGUubWFlPic=

> <r_lp_tautomer_probability>
0.999978000241998

> <r_epik_Ionization_Penalty>
  0.0608

> <r_epik_Ionization_Penalty_Charging>
  0.0604

> <r_epik_Ionization_Penalty_Neutral>
  0.0004

> <r_epik_State_Penalty>
  0.0524

> <r_epik_Charging_Adjusted_Penalty>
0.112841773912698

> <i_epik_Tot_Q>
1

> <i_epik_Tot_abs_Q>
1

> <i_f3d_flags>
0

> <s_lp_Force_Field>
OPLS_2005

> <r_lp_Energy>
45.840645

> <b_lp_Chiralities_Consistent>
1

> <s_lp_Variant>
/home/bortolaa/Project/GT/mario-master/ligands/set505ligs_train.sdf:42-1

> <s_i_glide_gridfile>
struct_1_site_1

> <i_i_glide_lignum>
42

> <i_i_glide_rotatable_bonds>
13

> <r_i_docking_score>
-7.0783674070139

> <r_i_glide_ligand_efficiency>
-0.191307227216592

> <r_i_glide_ligand_efficiency_sa>
-0.637478122141631

> <r_i_glide_ligand_efficiency_ln>
-1.5351319501055

> <r_i_glide_gscore>
-7.1307674070139

> <r_i_glide_lipo>
-2.26945439099525

> <r_i_glide_hbond>
-0.652838035775658

> <r_i_glide_metal>
0

> <r_i_glide_rewards>
-0.596608024328851

> <r_i_glide_evdw>
-51.203556060791

> <r_i_glide_ecoul>
-11.2807598114014

> <r_i_glide_erotb>
0.730706897097117

> <r_i_glide_esite>
-0.0902820782614957

> <r_i_glide_emodel>
-39.4414310934073

> <r_i_glide_energy>
-62.4843158721924

> <r_i_glide_einternal>
13.8009643554688

> <i_i_glide_confnum>
85

> <i_i_glide_posenum>
1

> <r_i_glide_eff_state_penalty>
0.0524

> <PMID>
20222760

> <r_glide_shape_similarity>
0.537272989749908

> <pH>
7.5

> <s_m_subgroup_title>
505 training

> <s_m_subgroupid>
pocket_pv

> <b_m_subgroup_collapsed>
0

$$$$
BindingDB_50144606_mol_1
                    3D
 Schrodinger Suite 2021-2.
 44 47  0  0  1  0            999 V2000
   24.2205    0.7951   53.0934 N   0  0  0  0  0  0
   25.6858    1.1245   53.0315 C   0  0  2  0  0  0
   23.5428   -0.1147   53.8806 C   0  0  0  0  0  0
   22.1912   -0.0846   53.4423 C   0  0  0  0  0  0
   22.0112    0.8632   52.4623 N   0  0  0  0  0  0
   26.5753    0.0270   52.4414 C   0  0  1  0  0  0
   23.2507    1.3330   52.3310 C   0  0  0  0  0  0
   26.1832    1.3646   54.2863 O   0  0  0  0  0  0
   27.8908    0.1765   53.1964 C   0  0  1  0  0  0
   27.5966    1.2783   54.1987 C   0  0  1  0  0  0
   21.3304   -0.9911   54.0787 C   0  0  0  0  0  0
   24.0312   -0.9078   54.8668 N   0  0  0  0  0  0
   21.8061   -1.7906   55.0531 N   0  0  0  0  0  0
   19.6130   -1.1313   53.7747 S   0  0  0  0  0  0
   23.0930   -1.6952   55.3815 C   0  0  0  0  0  0
   26.0920   -1.2712   52.6369 O   0  0  0  0  0  0
   28.3235   -1.0243   53.8046 O   0  0  0  0  0  0
   19.0550   -0.4663   52.1824 C   0  0  0  0  0  0
   14.8311    0.3365   52.5201 C   0  0  0  0  0  0
   17.5804   -0.1861   52.2658 C   0  0  0  0  0  0
   28.1522    2.6280   53.7354 C   0  0  0  0  0  0
   12.8135    0.7344   52.8311 I   0  0  0  0  0  0
   15.3465   -0.8873   52.9407 C   0  0  0  0  0  0
   15.6732    1.2744   51.9032 C   0  0  0  0  0  0
   16.7149   -1.1503   52.8126 C   0  0  0  0  0  0
   17.0499    1.0145   51.7747 C   0  0  0  0  0  0
   29.4888    2.7324   54.1760 O   0  0  0  0  0  0
   25.7337    2.0482   52.4508 H   0  0  0  0  0  0
   26.6886    0.2008   51.3725 H   0  0  0  0  0  0
   23.4714    2.1001   51.6027 H   0  0  0  0  0  0
   28.7073    0.4904   52.5544 H   0  0  0  0  0  0
   27.9833    1.0387   55.1914 H   0  0  0  0  0  0
   23.4249   -2.3613   56.1654 H   0  0  0  0  0  0
   26.6792   -1.6326   53.2979 H   0  0  0  0  0  0
   29.1305   -1.3010   53.3957 H   0  0  0  0  0  0
   19.6015    0.4189   51.8668 H   0  0  0  0  0  0
   19.0891   -1.2310   51.4086 H   0  0  0  0  0  0
   27.5890    3.4473   54.1833 H   0  0  0  0  0  0
   28.0905    2.7724   52.6566 H   0  0  0  0  0  0
   14.6911   -1.6271   53.3746 H   0  0  0  0  0  0
   15.2673    2.2132   51.5582 H   0  0  0  0  0  0
   17.0926   -2.0994   53.1632 H   0  0  0  0  0  0
   17.6956    1.7554   51.3255 H   0  0  0  0  0  0
   30.0910    2.3363   53.5557 H   0  0  0  0  0  0
  1  2  1  0  0  0
  1  3  1  0  0  0
  1  7  1  0  0  0
  2  6  1  0  0  0
  2  8  1  0  0  0
  2 28  1  0  0  0
  3  4  2  0  0  0
  3 12  1  0  0  0
  4 11  1  0  0  0
  4  5  1  0  0  0
  5  7  2  0  0  0
  6  9  1  0  0  0
  6 16  1  0  0  0
  6 29  1  0  0  0
  7 30  1  0  0  0
  8 10  1  0  0  0
  9 17  1  0  0  0
  9 10  1  0  0  0
  9 31  1  0  0  0
 10 21  1  0  0  0
 10 32  1  0  0  0
 11 14  1  0  0  0
 11 13  2  0  0  0
 12 15  2  0  0  0
 13 15  1  0  0  0
 14 18  1  0  0  0
 15 33  1  0  0  0
 16 34  1  0  0  0
 17 35  1  0  0  0
 18 20  1  0  0  0
 18 36  1  0  0  0
 18 37  1  0  0  0
 19 24  2  0  0  0
 19 22  1  0  0  0
 19 23  1  0  0  0
 20 25  1  0  0  0
 20 26  2  0  0  0
 21 27  1  0  0  0
 21 38  1  0  0  0
 21 39  1  0  0  0
 23 25  2  0  0  0
 23 40  1  0  0  0
 24 26  1  0  0  0
 24 41  1  0  0  0
 25 42  1  0  0  0
 26 43  1  0  0  0
 27 44  1  0  0  0
M  END
> <s_m_entry_id>
372

> <s_m_entry_name>
pocket_pv.183

> <s_m_Source_Path>
/home/bortolaa/Project/GT/mario-master/docking/set505protein_struct_1_site_1_set505ligs_train

> <s_m_Source_File>
pocket_pv.maegz

> <i_m_Source_File_Index>
183

> <From>
www.bindingDB.org

> <BindingDB Reactant_set_id>
50463846

> <Ligand InChI>
InChI=1S/C29H23ClN4O3/c1-36-26-15-23-25(16-27(26)37-17-19-7-3-2-4-8-19)31-18-32-28(23)33-20-11-13-21(14-12-20)34-29(35)22-9-5-6-10-24(22)30/h2-16,18H,17H2,1H3,(H,34,35)(H,31,32,33)

> <Ligand InChI Key>
JASSTMZJDQXQFP-UHFFFAOYSA-N

> <BindingDB MonomerID>
50144606

> <BindingDB Ligand Name>
CHEMBL3759203

> <Target Name Assigned by Curator or DataSource>
Epidermal growth factor receptor

> <Target Source Organism According to Curator or DataSource>
Homo sapiens

> <Ki (nM)>


> <IC50 (nM)>
730

> <Kd (nM)>


> <EC50 (nM)>


> <kon (M-1-s-1)>


> <koff (s-1)>


> <pH>


> <Temp C>


> <Curation/DataSource>
ChEMBL

> <Article DOI>
10.1016/j.ejmech.2015.12.032

> <PubChem AID>


> <Patent Number>


> <Authors>
Zhang, HQ; Gong, FH; Li, CG; Zhang, C; Wang, YJ; Xu, YG; Sun, LP

> <Institution>
China Pharmaceutical University

> <Link to Ligand in BindingDB>
http://www.bindingdb.org/bind/chemsearch/marvin/MolStructure.jsp?monomerid=50144606

> <Link to Ligand-Target Pair in BindingDB>
http://www.bindingdb.org/jsp/dbsearch/PrimarySearch_ki.jsp?energyterm=kJ/mole&tag=r21&monomerid=50144606&enzyme=Epidermal+growth+factor+receptor&column=ki&startPg=0&Increment=50&submit=Search

> <Ligand HET ID in PDB>


> <PDB ID(s) for Ligand-Target Complex>


> <PubChem CID>
44312149

> <PubChem SID>
104033684

> <ChEBI ID of Ligand>


> <ChEMBL ID of Ligand>
CHEMBL3759203

> <DrugBank ID of Ligand>


> <IUPHAR_GRAC ID of Ligand>


> <KEGG ID of Ligand>


> <ZINC ID of Ligand>
ZINC36332177

> <Number of Protein Chains in Target (>
1

> <BindingDB Target Chain Sequence>
MRPSGTAGAALLALLAALCPASRALEEKKVCQGTSNKLTQLGTFEDHFLSLQRMFNNCEVVLGNLEITYVQRNYDLSFLKTIQEVAGYVLIALNTVERIPLENLQIIRGNMYYENSYALAVLSNYDANKTGLKELPMRNLQEILHGAVRFSNNPALCNVESIQWRDIVSSDFLSNMSMDFQNHLGSCQKCDPSCPNGSCWGAGEENCQKLTKIICAQQCSGRCRGKSPSDCCHNQCAAGCTGPRESDCLVCRKFRDEATCKDTCPPLMLYNPTTYQMDVNPEGKYSFGATCVKKCPRNYVVTDHGSCVRACGADSYEMEEDGVRKCKKCEGPCRKVCNGIGIGEFKDSLSINATNIKHFKNCTSISGDLHILPVAFRGDSFTHTPPLDPQELDILKTVKEITGFLLIQAWPENRTDLHAFENLEIIRGRTKQHGQFSLAVVSLNITSLGLRSLKEISDGDVIISGNKNLCYANTINWKKLFGTSGQKTKIISNRGENSCKATGQVCHALCSPEGCWGPEPRDCVSCRNVSRGRECVDKCNLLEGEPREFVENSECIQCHPECLPQAMNITCTGRGPDNCIQCAHYIDGPHCVKTCPAGVMGENNTLVWKYADAGHVCHLCHPNCTYGCTGPGLEGCPTNGPKIPSIATGMVGALLLLLVVALGIGLFMRRRHIVRKRTLRRLLQERELVEPLTPSGEAPNQALLRILKETEFKKIKVLGSGAFGTVYKGLWIPEGEKVKIPVAIKELREATSPKANKEILDEAYVMASVDNPHVCRLLGICLTSTVQLITQLMPFGCLLDYVREHKDNIGSQYLLNWCVQIAKGMNYLEDRRLVHRDLAARNVLVKTPQHVKITDFGLAKLLGAEEKEYHAEGGKVPIKWMALESILHRIYTHQSDVWSYGVTVWELMTFGSKPYDGIPASEISSILEKGERLPQPPICTIDVYMIMVKCWMIDADSRPKFRELIIEFSKMARDPQRYLVIQGDERMHLPSPTDSNFYRALMDEEDMDDVVDADEYLIPQQGFFSSPSTSRTPLLSSLSATSNNSTVACIDRNGLQSCPIKEDSFLQRYSSDPTGALTEDSIDDTFLPVPEYINQSVPKRPAGSVQNPVYHNQPLNPAPSRDPHYQDPHSTAVGNPEYLNTVQPTCVNSTFDSPAHWAQKGSHQISLDNPDYQQDFFPKEAKPNGIFKGSTAENAEYLRVAPQSSEFIGA

> <PDB ID(s) of Target Chain>
1IVO,1M14,1M17,1MOX,1XKK,1Z9I,2GS2,2GS6,2ITW,2ITX,2ITY,2J5E,2J5F,2J6M,2RF9,2RGP,3B2V,3BEL,3GOP,3POZ,3QWQ,3VJO,3W2O,3W2P,3W2Q,3W2R,3W2S,3W32,3W33,4G5J,4I23,4JQ7,4JQ8,4JR3,4JRV,4KRO,4LI5,4RJ4,4RJ5,4RJ6,4RJ7,4RJ8,4TKS,4UIP,4UV7,4WKQ,4WRG,4ZAU,5C8K,5C8M,5C8N,5CAL,5CAN,5CAO,5CAP,5CAQ,5CAS,5CAU,5CAV,5EDP,5EDQ,5EDR,5EM5,5EM6,5EM7,5EM8,5FED,5GNK,5HCX,5HCY,5HCZ,5HIB,5HIC,5UGB,5WB7,5WB8,5Y25,6S89,6S8A

> <UniProt (SwissProt) Recommended Name of Target Chain>
Epidermal growth factor receptor

> <UniProt (SwissProt) Entry Name of Target Chain>
EGFR_HUMAN

> <UniProt (SwissProt) Primary ID of Target Chain>
P00533

> <UniProt (SwissProt) Secondary ID(s) of Target Chain>
O00688,O00732,P06268,Q14225,Q68GS5,Q92795,Q9BZS2,Q9GZX1,Q9H2C9,Q9H3C9,Q9UMD7,Q9UMD8,Q9UMG5

> <UniProt (SwissProt) Alternative ID(s) of Target Chain>


> <UniProt (TrEMBL) Submitted Name of Target Chain>


> <UniProt (TrEMBL) Entry Name of Target Chain>


> <UniProt (TrEMBL) Primary ID of Target Chain>


> <UniProt (TrEMBL) Secondary ID(s) of Target Chain>


> <UniProt (TrEMBL) Alternative ID(s) of Target Chain>


> <training label>
6.13668

> <i_lp_mmshare_version>
54117

> <s_epik_input>
W09IXVtDSDJdW0NAQEhdKE8xKVtDQEBIXShbT0hdKVtDQEBIXShbT0hdKVtDQEhdMW4yW2NIXW5jKGMyMyljKG5bY0hdbjMpU1tDSDJdYyhbY0hdW2NIXTQpW2NIXVtjSF1jNEk=

> <s_epik_cmdline>
J2VwaWtfcHl0aG9uJywgJy1waHQnLCAnMC4xJywgJy1waCcsICc3LjQnLCAnLXRuJywgJzgnLCAnLW1hJywgJzIwMCcsICctaW1hZScsICc8aW5maWxlLm1hZT4nLCAnLW9tYWUnLCAnPG91dGZpbGUubWFlPic=

> <r_lp_tautomer_probability>
1

> <r_epik_Ionization_Penalty>
  0.0001

> <r_epik_Ionization_Penalty_Charging>
  0.0000

> <r_epik_Ionization_Penalty_Neutral>
  0.0001

> <r_epik_State_Penalty>
  0.0000

> <r_epik_Charging_Adjusted_Penalty>
0

> <i_epik_Tot_Q>
0

> <i_epik_Tot_abs_Q>
0

> <i_f3d_flags>
0

> <s_lp_Force_Field>
OPLS_2005

> <r_lp_Energy>
45.036554

> <b_lp_Chiralities_Consistent>
1

> <s_lp_Variant>
BindingDB_50144606_mol_1-11

> <s_i_glide_gridfile>
struct_1_site_1

> <i_i_glide_lignum>
90

> <i_i_glide_rotatable_bonds>
8

> <r_i_docking_score>
-7.07269302353173

> <r_i_glide_ligand_efficiency>
-0.261951593464138

> <r_i_glide_ligand_efficiency_sa>
-0.785854779529065

> <r_i_glide_ligand_efficiency_ln>
-1.64640633342072

> <r_i_glide_gscore>
-7.07269302353173

> <r_i_glide_lipo>
-1.90375549097912

> <r_i_glide_hbond>
-0.481478122076769

> <r_i_glide_metal>
0

> <r_i_glide_rewards>
-1.96788965248902

> <r_i_glide_evdw>
-40.0537528991699

> <r_i_glide_ecoul>
-7.49832725524902

> <r_i_glide_erotb>
0.407866975259027

> <r_i_glide_esite>
0

> <r_i_glide_emodel>
-41.1153195239592

> <r_i_glide_energy>
-47.5520801544189

> <r_i_glide_einternal>
4.097336769104

> <i_i_glide_confnum>
224

> <i_i_glide_posenum>
301

> <r_i_glide_eff_state_penalty>
0

> <PMID>
26826581

> <s_epik_Chemistry_Notes>
This compound contains an acetal/aminal-like group ( X-CH(R)-Y where X, Y are N, S, or O) that may be acid/base labile, releasing an aldehyde.

> <r_glide_shape_similarity>
0.753906309604645

> <s_m_subgroup_title>
505 training

> <s_m_subgroupid>
pocket_pv

> <b_m_subgroup_collapsed>
0

$$$$
BindingDB_50144606_mol_1
                    3D
 Schrodinger Suite 2021-2.
 44 47  0  0  1  0            999 V2000
   25.1578    1.0044   53.4400 N   0  0  0  0  0  0
   26.4877    1.5862   53.7893 C   0  0  2  0  0  0
   24.4611   -0.0222   54.0578 C   0  0  0  0  0  0
   23.1378    0.0615   53.5605 C   0  0  0  0  0  0
   23.0314    1.0414   52.5964 N   0  0  0  0  0  0
   27.3711    1.7260   52.5749 C   0  0  2  0  0  0
   24.2664    1.5392   52.5899 C   0  0  0  0  0  0
   27.1498    0.7254   54.6541 O   0  0  0  0  0  0
   28.7457    1.4221   53.1460 C   0  0  2  0  0  0
   28.4039    0.3146   54.1262 C   0  0  2  0  0  0
   22.2148   -0.8026   54.1766 C   0  0  0  0  0  0
   24.8785   -0.8901   55.0200 N   0  0  0  0  0  0
   22.6069   -1.6668   55.1256 N   0  0  0  0  0  0
   20.5034   -0.7646   53.9467 S   0  0  0  0  0  0
   23.8896   -1.6629   55.4688 C   0  0  0  0  0  0
   27.2939    2.9761   51.9491 O   0  0  0  0  0  0
   29.4490    2.4909   53.7672 O   0  0  0  0  0  0
   20.0588    0.0178   52.3836 C   0  0  0  0  0  0
   15.7380   -0.0173   52.4070 C   0  0  0  0  0  0
   18.5523   -0.0647   52.2677 C   0  0  0  0  0  0
   28.2147   -1.0710   53.4942 C   0  0  0  0  0  0
   13.6865    0.0819   52.7429 I   0  0  0  0  0  0
   16.4409   -1.1225   52.8932 C   0  0  0  0  0  0
   16.4291    1.0199   51.7630 C   0  0  0  0  0  0
   17.8385   -1.1601   52.8034 C   0  0  0  0  0  0
   17.8356    1.0022   51.7023 C   0  0  0  0  0  0
   29.4438   -1.7239   53.3175 O   0  0  0  0  0  0
   26.2715    2.5353   54.2852 H   0  0  0  0  0  0
   27.0879    0.9669   51.8460 H   0  0  0  0  0  0
   24.5158    2.3979   51.9853 H   0  0  0  0  0  0
   29.4441    1.1261   52.3904 H   0  0  0  0  0  0
   29.1295    0.2473   54.9380 H   0  0  0  0  0  0
   24.1795   -2.4244   56.1751 H   0  0  0  0  0  0
   27.4875    3.6699   52.5740 H   0  0  0  0  0  0
   30.3380    2.5273   53.4022 H   0  0  0  0  0  0
   20.3700    1.0605   52.3963 H   0  0  0  0  0  0
   20.5440   -0.4663   51.5413 H   0  0  0  0  0  0
   27.6671   -1.0468   52.5521 H   0  0  0  0  0  0
   27.6208   -1.6753   54.1734 H   0  0  0  0  0  0
   15.9078   -1.9298   53.3747 H   0  0  0  0  0  0
   15.8846    1.8686   51.3736 H   0  0  0  0  0  0
   18.3381   -2.0270   53.2130 H   0  0  0  0  0  0
   18.3645    1.8396   51.2668 H   0  0  0  0  0  0
   29.2710   -2.6443   53.1691 H   0  0  0  0  0  0
  1  2  1  0  0  0
  1  3  1  0  0  0
  1  7  1  0  0  0
  2  6  1  0  0  0
  2  8  1  0  0  0
  2 28  1  0  0  0
  3  4  2  0  0  0
  3 12  1  0  0  0
  4 11  1  0  0  0
  4  5  1  0  0  0
  5  7  2  0  0  0
  6  9  1  0  0  0
  6 16  1  0  0  0
  6 29  1  0  0  0
  7 30  1  0  0  0
  8 10  1  0  0  0
  9 17  1  0  0  0
  9 10  1  0  0  0
  9 31  1  0  0  0
 10 21  1  0  0  0
 10 32  1  0  0  0
 11 14  1  0  0  0
 11 13  2  0  0  0
 12 15  2  0  0  0
 13 15  1  0  0  0
 14 18  1  0  0  0
 15 33  1  0  0  0
 16 34  1  0  0  0
 17 35  1  0  0  0
 18 20  1  0  0  0
 18 36  1  0  0  0
 18 37  1  0  0  0
 19 24  2  0  0  0
 19 22  1  0  0  0
 19 23  1  0  0  0
 20 25  1  0  0  0
 20 26  2  0  0  0
 21 27  1  0  0  0
 21 38  1  0  0  0
 21 39  1  0  0  0
 23 25  2  0  0  0
 23 40  1  0  0  0
 24 26  1  0  0  0
 24 41  1  0  0  0
 25 42  1  0  0  0
 26 43  1  0  0  0
 27 44  1  0  0  0
M  END
> <s_m_entry_id>
373

> <s_m_entry_name>
pocket_pv.184

> <s_m_Source_Path>
/home/bortolaa/Project/GT/mario-master/docking/set505protein_struct_1_site_1_set505ligs_train

> <s_m_Source_File>
pocket_pv.maegz

> <i_m_Source_File_Index>
184

> <From>
www.bindingDB.org

> <BindingDB Reactant_set_id>
50463846

> <Ligand InChI>
InChI=1S/C29H23ClN4O3/c1-36-26-15-23-25(16-27(26)37-17-19-7-3-2-4-8-19)31-18-32-28(23)33-20-11-13-21(14-12-20)34-29(35)22-9-5-6-10-24(22)30/h2-16,18H,17H2,1H3,(H,34,35)(H,31,32,33)

> <Ligand InChI Key>
JASSTMZJDQXQFP-UHFFFAOYSA-N

> <BindingDB MonomerID>
50144606

> <BindingDB Ligand Name>
CHEMBL3759203

> <Target Name Assigned by Curator or DataSource>
Epidermal growth factor receptor

> <Target Source Organism According to Curator or DataSource>
Homo sapiens

> <Ki (nM)>


> <IC50 (nM)>
730

> <Kd (nM)>


> <EC50 (nM)>


> <kon (M-1-s-1)>


> <koff (s-1)>


> <pH>


> <Temp C>


> <Curation/DataSource>
ChEMBL

> <Article DOI>
10.1016/j.ejmech.2015.12.032

> <PubChem AID>


> <Patent Number>


> <Authors>
Zhang, HQ; Gong, FH; Li, CG; Zhang, C; Wang, YJ; Xu, YG; Sun, LP

> <Institution>
China Pharmaceutical University

> <Link to Ligand in BindingDB>
http://www.bindingdb.org/bind/chemsearch/marvin/MolStructure.jsp?monomerid=50144606

> <Link to Ligand-Target Pair in BindingDB>
http://www.bindingdb.org/jsp/dbsearch/PrimarySearch_ki.jsp?energyterm=kJ/mole&tag=r21&monomerid=50144606&enzyme=Epidermal+growth+factor+receptor&column=ki&startPg=0&Increment=50&submit=Search

> <Ligand HET ID in PDB>


> <PDB ID(s) for Ligand-Target Complex>


> <PubChem CID>
44312149

> <PubChem SID>
104033684

> <ChEBI ID of Ligand>


> <ChEMBL ID of Ligand>
CHEMBL3759203

> <DrugBank ID of Ligand>


> <IUPHAR_GRAC ID of Ligand>


> <KEGG ID of Ligand>


> <ZINC ID of Ligand>
ZINC36332177

> <Number of Protein Chains in Target (>
1

> <BindingDB Target Chain Sequence>
MRPSGTAGAALLALLAALCPASRALEEKKVCQGTSNKLTQLGTFEDHFLSLQRMFNNCEVVLGNLEITYVQRNYDLSFLKTIQEVAGYVLIALNTVERIPLENLQIIRGNMYYENSYALAVLSNYDANKTGLKELPMRNLQEILHGAVRFSNNPALCNVESIQWRDIVSSDFLSNMSMDFQNHLGSCQKCDPSCPNGSCWGAGEENCQKLTKIICAQQCSGRCRGKSPSDCCHNQCAAGCTGPRESDCLVCRKFRDEATCKDTCPPLMLYNPTTYQMDVNPEGKYSFGATCVKKCPRNYVVTDHGSCVRACGADSYEMEEDGVRKCKKCEGPCRKVCNGIGIGEFKDSLSINATNIKHFKNCTSISGDLHILPVAFRGDSFTHTPPLDPQELDILKTVKEITGFLLIQAWPENRTDLHAFENLEIIRGRTKQHGQFSLAVVSLNITSLGLRSLKEISDGDVIISGNKNLCYANTINWKKLFGTSGQKTKIISNRGENSCKATGQVCHALCSPEGCWGPEPRDCVSCRNVSRGRECVDKCNLLEGEPREFVENSECIQCHPECLPQAMNITCTGRGPDNCIQCAHYIDGPHCVKTCPAGVMGENNTLVWKYADAGHVCHLCHPNCTYGCTGPGLEGCPTNGPKIPSIATGMVGALLLLLVVALGIGLFMRRRHIVRKRTLRRLLQERELVEPLTPSGEAPNQALLRILKETEFKKIKVLGSGAFGTVYKGLWIPEGEKVKIPVAIKELREATSPKANKEILDEAYVMASVDNPHVCRLLGICLTSTVQLITQLMPFGCLLDYVREHKDNIGSQYLLNWCVQIAKGMNYLEDRRLVHRDLAARNVLVKTPQHVKITDFGLAKLLGAEEKEYHAEGGKVPIKWMALESILHRIYTHQSDVWSYGVTVWELMTFGSKPYDGIPASEISSILEKGERLPQPPICTIDVYMIMVKCWMIDADSRPKFRELIIEFSKMARDPQRYLVIQGDERMHLPSPTDSNFYRALMDEEDMDDVVDADEYLIPQQGFFSSPSTSRTPLLSSLSATSNNSTVACIDRNGLQSCPIKEDSFLQRYSSDPTGALTEDSIDDTFLPVPEYINQSVPKRPAGSVQNPVYHNQPLNPAPSRDPHYQDPHSTAVGNPEYLNTVQPTCVNSTFDSPAHWAQKGSHQISLDNPDYQQDFFPKEAKPNGIFKGSTAENAEYLRVAPQSSEFIGA

> <PDB ID(s) of Target Chain>
1IVO,1M14,1M17,1MOX,1XKK,1Z9I,2GS2,2GS6,2ITW,2ITX,2ITY,2J5E,2J5F,2J6M,2RF9,2RGP,3B2V,3BEL,3GOP,3POZ,3QWQ,3VJO,3W2O,3W2P,3W2Q,3W2R,3W2S,3W32,3W33,4G5J,4I23,4JQ7,4JQ8,4JR3,4JRV,4KRO,4LI5,4RJ4,4RJ5,4RJ6,4RJ7,4RJ8,4TKS,4UIP,4UV7,4WKQ,4WRG,4ZAU,5C8K,5C8M,5C8N,5CAL,5CAN,5CAO,5CAP,5CAQ,5CAS,5CAU,5CAV,5EDP,5EDQ,5EDR,5EM5,5EM6,5EM7,5EM8,5FED,5GNK,5HCX,5HCY,5HCZ,5HIB,5HIC,5UGB,5WB7,5WB8,5Y25,6S89,6S8A

> <UniProt (SwissProt) Recommended Name of Target Chain>
Epidermal growth factor receptor

> <UniProt (SwissProt) Entry Name of Target Chain>
EGFR_HUMAN

> <UniProt (SwissProt) Primary ID of Target Chain>
P00533

> <UniProt (SwissProt) Secondary ID(s) of Target Chain>
O00688,O00732,P06268,Q14225,Q68GS5,Q92795,Q9BZS2,Q9GZX1,Q9H2C9,Q9H3C9,Q9UMD7,Q9UMD8,Q9UMG5

> <UniProt (SwissProt) Alternative ID(s) of Target Chain>


> <UniProt (TrEMBL) Submitted Name of Target Chain>


> <UniProt (TrEMBL) Entry Name of Target Chain>


> <UniProt (TrEMBL) Primary ID of Target Chain>


> <UniProt (TrEMBL) Secondary ID(s) of Target Chain>


> <UniProt (TrEMBL) Alternative ID(s) of Target Chain>


> <training label>
6.13668

> <i_lp_mmshare_version>
54117

> <s_epik_input>
W09IXVtDSDJdW0NASF0oTzEpW0NASF0oW09IXSlbQ0BIXShbT0hdKVtDQEhdMW4yW2NIXW5jKGMyMyljKG5bY0hdbjMpU1tDSDJdYyhbY0hdW2NIXTQpW2NIXVtjSF1jNEk=

> <s_epik_cmdline>
J2VwaWtfcHl0aG9uJywgJy1waHQnLCAnMC4xJywgJy1waCcsICc3LjQnLCAnLXRuJywgJzgnLCAnLW1hJywgJzIwMCcsICctaW1hZScsICc8aW5maWxlLm1hZT4nLCAnLW9tYWUnLCAnPG91dGZpbGUubWFlPic=

> <r_lp_tautomer_probability>
1

> <r_epik_Ionization_Penalty>
  0.0001

> <r_epik_Ionization_Penalty_Charging>
  0.0000

> <r_epik_Ionization_Penalty_Neutral>
  0.0001

> <r_epik_State_Penalty>
  0.0000

> <r_epik_Charging_Adjusted_Penalty>
0

> <i_epik_Tot_Q>
0

> <i_epik_Tot_abs_Q>
0

> <i_f3d_flags>
0

> <s_lp_Force_Field>
OPLS_2005

> <r_lp_Energy>
41.340676

> <b_lp_Chiralities_Consistent>
1

> <s_lp_Variant>
BindingDB_50144606_mol_1-5

> <s_i_glide_gridfile>
struct_1_site_1

> <i_i_glide_lignum>
84

> <i_i_glide_rotatable_bonds>
8

> <r_i_docking_score>
-7.06147555309632

> <r_i_glide_ligand_efficiency>
-0.26153613159616

> <r_i_glide_ligand_efficiency_sa>
-0.7846083939265

> <r_i_glide_ligand_efficiency_ln>
-1.64379509123781

> <r_i_glide_gscore>
-7.06147555309632

> <r_i_glide_lipo>
-2.18467412202524

> <r_i_glide_hbond>
-0.0317260891052717

> <r_i_glide_metal>
0

> <r_i_glide_rewards>
-1.72091816252065

> <r_i_glide_evdw>
-38.859619140625

> <r_i_glide_ecoul>
-10.4135694503784

> <r_i_glide_erotb>
0.407866975259027

> <r_i_glide_esite>
-0.0270077801161702

> <r_i_glide_emodel>
-44.2883383691305

> <r_i_glide_energy>
-49.2731885910034

> <r_i_glide_einternal>
5.31430578231812

> <i_i_glide_confnum>
314

> <i_i_glide_posenum>
133

> <r_i_glide_eff_state_penalty>
0

> <PMID>
26826581

> <s_epik_Chemistry_Notes>
This compound contains an acetal/aminal-like group ( X-CH(R)-Y where X, Y are N, S, or O) that may be acid/base labile, releasing an aldehyde.

> <r_glide_shape_similarity>
0.750556111335754

> <s_m_subgroup_title>
505 training

> <s_m_subgroupid>
pocket_pv

> <b_m_subgroup_collapsed>
0

$$$$
BindingDB_50117983
                    3D
 Schrodinger Suite 2021-2.
 48 51  0  0  1  0            999 V2000
   21.3601   -0.0606   53.1241 C   0  0  0  0  0  0
   22.7013   -0.0046   53.5706 C   0  0  0  0  0  0
   20.5068   -0.9858   53.7753 C   0  0  0  0  0  0
   20.8628    0.7537   52.0836 C   0  0  0  0  0  0
   23.1630   -0.8476   54.5149 N   0  0  0  0  0  0
   28.0582   -0.9869   53.2603 C   0  0  0  0  0  0
   19.1392   -1.0132   53.4195 C   0  0  0  0  0  0
   29.8884   -2.3603   53.3921 N   0  0  0  0  0  0
   23.5601    0.9903   53.0858 N   0  0  0  0  0  0
   19.5021    0.6990   51.7254 C   0  0  0  0  0  0
   18.6156   -0.1455   52.4265 C   0  0  0  0  0  0
   27.3576   -2.5536   52.9745 S   0  0  0  0  0  0
   21.0026   -1.8095   54.7253 N   0  0  0  0  0  0
   28.9135   -3.2588   53.2908 C   0  0  0  0  0  0
   27.1909    0.1606   53.3125 C   0  0  0  0  0  0
   29.4166   -1.0537   53.3953 C   0  0  0  0  0  0
   22.2954   -1.7066   55.0250 C   0  0  0  0  0  0
   24.9410    1.1187   53.2515 C   0  0  0  0  0  0
   25.7891    0.0047   53.2346 C   0  0  0  0  0  0
   18.9867    1.4995   50.7355 O   0  0  0  0  0  0
   17.2780   -0.0574   52.0842 O   0  0  0  0  0  0
   27.7447    1.4434   53.4420 C   0  0  0  0  0  0
   26.8993    2.5528   53.4646 C   0  0  0  0  0  0
   25.5064    2.3988   53.3601 C   0  0  0  0  0  0
   19.6457    1.4691   49.4770 C   0  0  0  0  0  0
   16.3055   -0.6082   52.9652 C   0  0  0  0  0  0
   20.1050    2.8740   49.1198 C   0  0  0  0  0  0
   14.9579    0.0817   52.7303 C   0  0  0  0  0  0
   21.5095    1.4428   51.5620 H   0  0  0  0  0  0
   18.4971   -1.6997   53.9496 H   0  0  0  0  0  0
   23.1044    1.7694   52.6386 H   0  0  0  0  0  0
   29.0901   -4.3195   53.3733 H   0  0  0  0  0  0
   30.1197   -0.2470   53.5464 H   0  0  0  0  0  0
   22.6745   -2.3805   55.7797 H   0  0  0  0  0  0
   25.3346   -0.9655   53.1204 H   0  0  0  0  0  0
   28.8112    1.5978   53.5150 H   0  0  0  0  0  0
   27.3290    3.5329   53.5606 H   0  0  0  0  0  0
   24.8812    3.2810   53.3645 H   0  0  0  0  0  0
   18.9192    1.1382   48.7385 H   0  0  0  0  0  0
   20.4758    0.7618   49.4358 H   0  0  0  0  0  0
   16.2210   -1.6805   52.7880 H   0  0  0  0  0  0
   16.5842   -0.4698   54.0101 H   0  0  0  0  0  0
   20.5665    2.8980   48.1323 H   0  0  0  0  0  0
   20.8358    3.2411   49.8413 H   0  0  0  0  0  0
   19.2634    3.5684   49.1130 H   0  0  0  0  0  0
   14.1911   -0.3356   53.3835 H   0  0  0  0  0  0
   15.0262    1.1497   52.9364 H   0  0  0  0  0  0
   14.6269   -0.0421   51.6990 H   0  0  0  0  0  0
  1  2  1  0  0  0
  1  3  1  0  0  0
  1  4  2  0  0  0
  2  5  2  0  0  0
  2  9  1  0  0  0
  3  7  2  0  0  0
  3 13  1  0  0  0
  4 10  1  0  0  0
  4 29  1  0  0  0
  5 17  1  0  0  0
  6 12  1  0  0  0
  6 15  1  0  0  0
  6 16  2  0  0  0
  7 11  1  0  0  0
  7 30  1  0  0  0
  8 14  2  0  0  0
  8 16  1  0  0  0
  9 18  1  0  0  0
  9 31  1  0  0  0
 10 11  2  0  0  0
 10 20  1  0  0  0
 11 21  1  0  0  0
 12 14  1  0  0  0
 13 17  2  0  0  0
 14 32  1  0  0  0
 15 19  1  0  0  0
 15 22  2  0  0  0
 16 33  1  0  0  0
 17 34  1  0  0  0
 18 19  2  0  0  0
 18 24  1  0  0  0
 19 35  1  0  0  0
 20 25  1  0  0  0
 21 26  1  0  0  0
 22 23  1  0  0  0
 22 36  1  0  0  0
 23 24  2  0  0  0
 23 37  1  0  0  0
 24 38  1  0  0  0
 25 27  1  0  0  0
 25 39  1  0  0  0
 25 40  1  0  0  0
 26 28  1  0  0  0
 26 41  1  0  0  0
 26 42  1  0  0  0
 27 43  1  0  0  0
 27 44  1  0  0  0
 27 45  1  0  0  0
 28 46  1  0  0  0
 28 47  1  0  0  0
 28 48  1  0  0  0
M  END
> <s_m_entry_id>
374

> <s_m_entry_name>
pocket_pv.185

> <s_m_Source_Path>
/home/bortolaa/Project/GT/mario-master/docking/set505protein_struct_1_site_1_set505ligs_train

> <s_m_Source_File>
pocket_pv.maegz

> <i_m_Source_File_Index>
185

> <From>
www.bindingDB.org

> <BindingDB Reactant_set_id>
50212991

> <Ligand InChI>
InChI=1S/C21H20N4O2S/c1-3-26-18-9-16-17(10-19(18)27-4-2)23-12-24-21(16)25-15-7-5-6-14(8-15)20-11-22-13-28-20/h5-13H,3-4H2,1-2H3,(H,23,24,25)

> <Ligand InChI Key>
NEVHAZBPBSUENX-UHFFFAOYSA-N

> <BindingDB MonomerID>
50117983

> <BindingDB Ligand Name>
(6,7-Diethoxy-quinazolin-4-yl)-(3-thiazol-5-yl-phenyl)-amine::CHEMBL340862

> <Target Name Assigned by Curator or DataSource>
Epidermal growth factor receptor

> <Target Source Organism According to Curator or DataSource>
Homo sapiens

> <Ki (nM)>


> <Kd (nM)>


> <EC50 (nM)>


> <kon (M-1-s-1)>


> <koff (s-1)>


> <pH>


> <Temp C>


> <Curation/DataSource>
ChEMBL

> <Article DOI>
10.1021/jm010496a

> <PubChem AID>


> <Patent Number>


> <Authors>
Wright, SW; Carlo, AA; Carty, MD; Danley, DE; Hageman, DL; Karam, GA; Levy, CB; Mansour, MN; Mathiowetz, AM; McClure, LD; Nestor, NB; McPherson, RK; Pandit, J; Pustilnik, LR; Schulte, GK; Soeller, WC; Treadway, JL; Wang, IK; Bauer, PH

> <Institution>
Pfizer Central Research

> <Link to Ligand in BindingDB>
http://www.bindingdb.org/bind/chemsearch/marvin/MolStructure.jsp?monomerid=50117983

> <Link to Ligand-Target Pair in BindingDB>
http://www.bindingdb.org/jsp/dbsearch/PrimarySearch_ki.jsp?energyterm=kJ/mole&tag=r21&monomerid=50117983&enzyme=Epidermal+growth+factor+receptor&column=ki&startPg=0&Increment=50&submit=Search

> <Ligand HET ID in PDB>


> <PDB ID(s) for Ligand-Target Complex>


> <PubChem CID>
10309561

> <PubChem SID>
104011387

> <ChEBI ID of Ligand>


> <ChEMBL ID of Ligand>
CHEMBL340862

> <DrugBank ID of Ligand>


> <IUPHAR_GRAC ID of Ligand>


> <KEGG ID of Ligand>


> <ZINC ID of Ligand>
ZINC13490790

> <Number of Protein Chains in Target (>
1

> <BindingDB Target Chain Sequence>
MRPSGTAGAALLALLAALCPASRALEEKKVCQGTSNKLTQLGTFEDHFLSLQRMFNNCEVVLGNLEITYVQRNYDLSFLKTIQEVAGYVLIALNTVERIPLENLQIIRGNMYYENSYALAVLSNYDANKTGLKELPMRNLQEILHGAVRFSNNPALCNVESIQWRDIVSSDFLSNMSMDFQNHLGSCQKCDPSCPNGSCWGAGEENCQKLTKIICAQQCSGRCRGKSPSDCCHNQCAAGCTGPRESDCLVCRKFRDEATCKDTCPPLMLYNPTTYQMDVNPEGKYSFGATCVKKCPRNYVVTDHGSCVRACGADSYEMEEDGVRKCKKCEGPCRKVCNGIGIGEFKDSLSINATNIKHFKNCTSISGDLHILPVAFRGDSFTHTPPLDPQELDILKTVKEITGFLLIQAWPENRTDLHAFENLEIIRGRTKQHGQFSLAVVSLNITSLGLRSLKEISDGDVIISGNKNLCYANTINWKKLFGTSGQKTKIISNRGENSCKATGQVCHALCSPEGCWGPEPRDCVSCRNVSRGRECVDKCNLLEGEPREFVENSECIQCHPECLPQAMNITCTGRGPDNCIQCAHYIDGPHCVKTCPAGVMGENNTLVWKYADAGHVCHLCHPNCTYGCTGPGLEGCPTNGPKIPSIATGMVGALLLLLVVALGIGLFMRRRHIVRKRTLRRLLQERELVEPLTPSGEAPNQALLRILKETEFKKIKVLGSGAFGTVYKGLWIPEGEKVKIPVAIKELREATSPKANKEILDEAYVMASVDNPHVCRLLGICLTSTVQLITQLMPFGCLLDYVREHKDNIGSQYLLNWCVQIAKGMNYLEDRRLVHRDLAARNVLVKTPQHVKITDFGLAKLLGAEEKEYHAEGGKVPIKWMALESILHRIYTHQSDVWSYGVTVWELMTFGSKPYDGIPASEISSILEKGERLPQPPICTIDVYMIMVKCWMIDADSRPKFRELIIEFSKMARDPQRYLVIQGDERMHLPSPTDSNFYRALMDEEDMDDVVDADEYLIPQQGFFSSPSTSRTPLLSSLSATSNNSTVACIDRNGLQSCPIKEDSFLQRYSSDPTGALTEDSIDDTFLPVPEYINQSVPKRPAGSVQNPVYHNQPLNPAPSRDPHYQDPHSTAVGNPEYLNTVQPTCVNSTFDSPAHWAQKGSHQISLDNPDYQQDFFPKEAKPNGIFKGSTAENAEYLRVAPQSSEFIGA

> <PDB ID(s) of Target Chain>
1IVO,1M14,1M17,1MOX,1XKK,1Z9I,2GS2,2GS6,2ITW,2ITX,2ITY,2J5E,2J5F,2J6M,2RF9,2RGP,3B2V,3BEL,3GOP,3POZ,3QWQ,3VJO,3W2O,3W2P,3W2Q,3W2R,3W2S,3W32,3W33,4G5J,4I23,4JQ7,4JQ8,4JR3,4JRV,4KRO,4LI5,4RJ4,4RJ5,4RJ6,4RJ7,4RJ8,4TKS,4UIP,4UV7,4WKQ,4WRG,4ZAU,5C8K,5C8M,5C8N,5CAL,5CAN,5CAO,5CAP,5CAQ,5CAS,5CAU,5CAV,5EDP,5EDQ,5EDR,5EM5,5EM6,5EM7,5EM8,5FED,5GNK,5HCX,5HCY,5HCZ,5HIB,5HIC,5UGB,5WB7,5WB8,5Y25,6S89,6S8A

> <UniProt (SwissProt) Recommended Name of Target Chain>
Epidermal growth factor receptor

> <UniProt (SwissProt) Entry Name of Target Chain>
EGFR_HUMAN

> <UniProt (SwissProt) Primary ID of Target Chain>
P00533

> <UniProt (SwissProt) Secondary ID(s) of Target Chain>
O00688,O00732,P06268,Q14225,Q68GS5,Q92795,Q9BZS2,Q9GZX1,Q9H2C9,Q9H3C9,Q9UMD7,Q9UMD8,Q9UMG5

> <UniProt (SwissProt) Alternative ID(s) of Target Chain>


> <UniProt (TrEMBL) Submitted Name of Target Chain>


> <UniProt (TrEMBL) Entry Name of Target Chain>


> <UniProt (TrEMBL) Primary ID of Target Chain>


> <UniProt (TrEMBL) Secondary ID(s) of Target Chain>


> <UniProt (TrEMBL) Alternative ID(s) of Target Chain>


> <training label>
7.95861

> <i_lp_mmshare_version>
54117

> <s_epik_input>
W0NIM11bQ0gyXU9jKFtjSF0xKWMoT1tDSDJdW0NIM10pW2NIXWMoYzEyKW5bY0hdbmMyW05IXWMoW2NIXVtjSF1bY0hdMylbY0hdYzMtYzRzW2NIXW5bY0hdNA==

> <s_epik_cmdline>
J2VwaWtfcHl0aG9uJywgJy1waHQnLCAnMC4xJywgJy1waCcsICc3LjQnLCAnLXRuJywgJzgnLCAnLW1hJywgJzIwMCcsICctaW1hZScsICc8aW5maWxlLm1hZT4nLCAnLW9tYWUnLCAnPG91dGZpbGUubWFlPic=

> <r_lp_tautomer_probability>
1

> <r_epik_Ionization_Penalty>
  0.0005

> <r_epik_Ionization_Penalty_Charging>
  0.0000

> <r_epik_Ionization_Penalty_Neutral>
  0.0005

> <r_epik_State_Penalty>
  0.0000

> <r_epik_Charging_Adjusted_Penalty>
0

> <i_epik_Tot_Q>
0

> <i_epik_Tot_abs_Q>
0

> <i_f3d_flags>
0

> <s_lp_Force_Field>
OPLS_2005

> <r_lp_Energy>
22.57306

> <b_lp_Chiralities_Consistent>
1

> <s_lp_Variant>
BindingDB_50117983-1

> <s_i_glide_gridfile>
struct_1_site_1

> <i_i_glide_lignum>
224

> <i_i_glide_rotatable_bonds>
7

> <r_i_docking_score>
-7.02699918997041

> <r_i_glide_ligand_efficiency>
-0.250964256784658

> <r_i_glide_ligand_efficiency_sa>
-0.7620752936408

> <r_i_glide_ligand_efficiency_ln>
-1.62203773470663

> <r_i_glide_gscore>
-7.02699918997041

> <r_i_glide_lipo>
-3.49295735476681

> <r_i_glide_hbond>
-0.160534843026987

> <r_i_glide_metal>
0

> <r_i_glide_rewards>
-1.16547823865768

> <r_i_glide_evdw>
-42.5069160461426

> <r_i_glide_ecoul>
-4.7764310836792

> <r_i_glide_erotb>
0.633781711340067

> <r_i_glide_esite>
0

> <r_i_glide_emodel>
-53.7367036967704

> <r_i_glide_energy>
-47.2833471298218

> <r_i_glide_einternal>
1.7151153087616

> <i_i_glide_confnum>
2

> <i_i_glide_posenum>
19

> <r_i_glide_eff_state_penalty>
0

> <IC50 (nM)>
11

> <PMID>
12190310

> <r_glide_shape_similarity>
0.854274034500122

> <s_m_subgroup_title>
505 training

> <s_m_subgroupid>
pocket_pv

> <b_m_subgroup_collapsed>
0

$$$$
BindingDB_50308831_mol_1
                    3D
 Schrodinger Suite 2021-2.
 38 40  0  0  1  0            999 V2000
   20.1504    0.5073   52.1802 C   0  0  0  0  0  0
   19.3496   -0.4103   52.8672 C   0  0  0  0  0  0
   19.9152   -1.2198   53.8539 C   0  0  0  0  0  0
   21.5100    0.6402   52.5083 C   0  0  0  0  0  0
   22.0750   -0.1732   53.5060 C   0  0  0  0  0  0
   21.2752   -1.1183   54.1856 C   0  0  0  0  0  0
   21.8071   -1.8985   55.1421 N   0  0  0  0  0  0
   23.0973   -1.7389   55.4106 C   0  0  0  0  0  0
   23.9383   -0.9001   54.8232 N   0  0  0  0  0  0
   23.4371   -0.0997   53.8676 C   0  0  0  0  0  0
   24.2860    0.8469   53.2768 N   0  0  0  0  0  0
   25.6788    0.9461   53.3420 C   0  0  0  0  0  0
   26.5023   -0.1947   53.3314 C   0  0  0  0  0  0
   27.8935   -0.0664   53.3869 C   0  0  0  0  0  0
   28.4693    1.2035   53.4580 C   0  0  0  0  0  0
   27.6651    2.3495   53.4290 C   0  0  0  0  0  0
   26.2701    2.2213   53.3674 C   0  0  0  0  0  0
   28.8851   -1.4695   53.3748 Cl  0  0  0  0  0  0
   19.5578    1.2663   51.2233 O   0  0  0  0  0  0
   18.0263   -0.5236   52.5732 O   0  0  0  0  0  0
   29.8031    1.3119   53.5716 F   0  0  0  0  0  0
   20.2557    1.3671   50.0050 C   0  0  0  0  0  0
   19.2647    1.8761   49.0014 C   0  0  0  0  0  0
   19.1394    3.1341   48.6790 C   0  0  0  0  0  0
   18.9731    4.3964   48.3801 C   0  0  0  0  0  0
   19.2911   -1.9235   54.3842 H   0  0  0  0  0  0
   22.1118    1.3671   51.9858 H   0  0  0  0  0  0
   23.5116   -2.3798   56.1741 H   0  0  0  0  0  0
   23.8203    1.6209   52.8352 H   0  0  0  0  0  0
   26.0700   -1.1830   53.2756 H   0  0  0  0  0  0
   28.1145    3.3313   53.4731 H   0  0  0  0  0  0
   25.6618    3.1154   53.3570 H   0  0  0  0  0  0
   17.7784    0.0944   51.9023 H   0  0  0  0  0  0
   20.6143    0.3747   49.6873 H   0  0  0  0  0  0
   21.1045    2.0477   50.0884 H   0  0  0  0  0  0
   18.6100    1.1360   48.5747 H   0  0  0  0  0  0
   18.2869    5.0220   48.9331 H   0  0  0  0  0  0
   19.5132    4.8623   47.5700 H   0  0  0  0  0  0
  1  2  2  0  0  0
  1  4  1  0  0  0
  1 19  1  0  0  0
  2  3  1  0  0  0
  2 20  1  0  0  0
  3  6  2  0  0  0
  3 26  1  0  0  0
  4  5  2  0  0  0
  4 27  1  0  0  0
  5  6  1  0  0  0
  5 10  1  0  0  0
  6  7  1  0  0  0
  7  8  2  0  0  0
  8  9  1  0  0  0
  8 28  1  0  0  0
  9 10  2  0  0  0
 10 11  1  0  0  0
 11 12  1  0  0  0
 11 29  1  0  0  0
 12 13  2  0  0  0
 12 17  1  0  0  0
 13 14  1  0  0  0
 13 30  1  0  0  0
 14 15  2  0  0  0
 14 18  1  0  0  0
 15 16  1  0  0  0
 15 21  1  0  0  0
 16 17  2  0  0  0
 16 31  1  0  0  0
 17 32  1  0  0  0
 19 22  1  0  0  0
 20 33  1  0  0  0
 22 23  1  0  0  0
 22 34  1  0  0  0
 22 35  1  0  0  0
 23 24  2  0  0  0
 23 36  1  0  0  0
 24 25  2  0  0  0
 25 37  1  0  0  0
 25 38  1  0  0  0
M  END
> <s_m_entry_id>
375

> <s_m_entry_name>
pocket_pv.186

> <s_m_Source_Path>
/home/bortolaa/Project/GT/mario-master/docking/set505protein_struct_1_site_1_set505ligs_train

> <s_m_Source_File>
pocket_pv.maegz

> <i_m_Source_File_Index>
186

> <From>
www.bindingDB.org

> <BindingDB Reactant_set_id>
50554734

> <Ligand InChI>
InChI=1S/C18H13ClFN3O2/c1-2-3-6-25-17-8-12-15(9-16(17)24)21-10-22-18(12)23-11-4-5-14(20)13(19)7-11/h3-5,7-10,24H,1,6H2,(H,21,22,23)

> <Ligand InChI Key>
RIBKVVLEGYLFLZ-UHFFFAOYSA-N

> <BindingDB MonomerID>
50308831

> <BindingDB Ligand Name>
6-(Buta-2,3-dienyloxy)-4-(3'-chloro-4'-fluoroanilino)-7-methoxyquinazoline::CHEMBL597950

> <Target Name Assigned by Curator or DataSource>
Epidermal growth factor receptor

> <Target Source Organism According to Curator or DataSource>
Homo sapiens

> <Ki (nM)>


> <Kd (nM)>


> <EC50 (nM)>


> <kon (M-1-s-1)>


> <koff (s-1)>


> <pH>


> <Temp C>


> <Curation/DataSource>
ChEMBL

> <Article DOI>
10.1016/j.bmc.2009.11.035

> <PubChem AID>


> <Patent Number>


> <Authors>
Ban, HS; Tanaka, Y; Nabeyama, W; Hatori, M; Nakamura, H

> <Institution>
Gakushuin University

> <Link to Ligand in BindingDB>
http://www.bindingdb.org/bind/chemsearch/marvin/MolStructure.jsp?monomerid=50308831

> <Link to Ligand-Target Pair in BindingDB>
http://www.bindingdb.org/jsp/dbsearch/PrimarySearch_ki.jsp?energyterm=kJ/mole&tag=r21&monomerid=50308831&enzyme=Epidermal+growth+factor+receptor&column=ki&startPg=0&Increment=50&submit=Search

> <Ligand HET ID in PDB>


> <PDB ID(s) for Ligand-Target Complex>


> <PubChem CID>
46230530

> <PubChem SID>
104163192

> <ChEBI ID of Ligand>


> <ChEMBL ID of Ligand>
CHEMBL597950

> <DrugBank ID of Ligand>


> <IUPHAR_GRAC ID of Ligand>


> <KEGG ID of Ligand>


> <ZINC ID of Ligand>
ZINC45356497

> <Number of Protein Chains in Target (>
1

> <BindingDB Target Chain Sequence>
MRPSGTAGAALLALLAALCPASRALEEKKVCQGTSNKLTQLGTFEDHFLSLQRMFNNCEVVLGNLEITYVQRNYDLSFLKTIQEVAGYVLIALNTVERIPLENLQIIRGNMYYENSYALAVLSNYDANKTGLKELPMRNLQEILHGAVRFSNNPALCNVESIQWRDIVSSDFLSNMSMDFQNHLGSCQKCDPSCPNGSCWGAGEENCQKLTKIICAQQCSGRCRGKSPSDCCHNQCAAGCTGPRESDCLVCRKFRDEATCKDTCPPLMLYNPTTYQMDVNPEGKYSFGATCVKKCPRNYVVTDHGSCVRACGADSYEMEEDGVRKCKKCEGPCRKVCNGIGIGEFKDSLSINATNIKHFKNCTSISGDLHILPVAFRGDSFTHTPPLDPQELDILKTVKEITGFLLIQAWPENRTDLHAFENLEIIRGRTKQHGQFSLAVVSLNITSLGLRSLKEISDGDVIISGNKNLCYANTINWKKLFGTSGQKTKIISNRGENSCKATGQVCHALCSPEGCWGPEPRDCVSCRNVSRGRECVDKCNLLEGEPREFVENSECIQCHPECLPQAMNITCTGRGPDNCIQCAHYIDGPHCVKTCPAGVMGENNTLVWKYADAGHVCHLCHPNCTYGCTGPGLEGCPTNGPKIPSIATGMVGALLLLLVVALGIGLFMRRRHIVRKRTLRRLLQERELVEPLTPSGEAPNQALLRILKETEFKKIKVLGSGAFGTVYKGLWIPEGEKVKIPVAIKELREATSPKANKEILDEAYVMASVDNPHVCRLLGICLTSTVQLITQLMPFGCLLDYVREHKDNIGSQYLLNWCVQIAKGMNYLEDRRLVHRDLAARNVLVKTPQHVKITDFGLAKLLGAEEKEYHAEGGKVPIKWMALESILHRIYTHQSDVWSYGVTVWELMTFGSKPYDGIPASEISSILEKGERLPQPPICTIDVYMIMVKCWMIDADSRPKFRELIIEFSKMARDPQRYLVIQGDERMHLPSPTDSNFYRALMDEEDMDDVVDADEYLIPQQGFFSSPSTSRTPLLSSLSATSNNSTVACIDRNGLQSCPIKEDSFLQRYSSDPTGALTEDSIDDTFLPVPEYINQSVPKRPAGSVQNPVYHNQPLNPAPSRDPHYQDPHSTAVGNPEYLNTVQPTCVNSTFDSPAHWAQKGSHQISLDNPDYQQDFFPKEAKPNGIFKGSTAENAEYLRVAPQSSEFIGA

> <PDB ID(s) of Target Chain>
1IVO,1M14,1M17,1MOX,1XKK,1Z9I,2GS2,2GS6,2ITW,2ITX,2ITY,2J5E,2J5F,2J6M,2RF9,2RGP,3B2V,3BEL,3GOP,3POZ,3QWQ,3VJO,3W2O,3W2P,3W2Q,3W2R,3W2S,3W32,3W33,4G5J,4I23,4JQ7,4JQ8,4JR3,4JRV,4KRO,4LI5,4RJ4,4RJ5,4RJ6,4RJ7,4RJ8,4TKS,4UIP,4UV7,4WKQ,4WRG,4ZAU,5C8K,5C8M,5C8N,5CAL,5CAN,5CAO,5CAP,5CAQ,5CAS,5CAU,5CAV,5EDP,5EDQ,5EDR,5EM5,5EM6,5EM7,5EM8,5FED,5GNK,5HCX,5HCY,5HCZ,5HIB,5HIC,5UGB,5WB7,5WB8,5Y25,6S89,6S8A

> <UniProt (SwissProt) Recommended Name of Target Chain>
Epidermal growth factor receptor

> <UniProt (SwissProt) Entry Name of Target Chain>
EGFR_HUMAN

> <UniProt (SwissProt) Primary ID of Target Chain>
P00533

> <UniProt (SwissProt) Secondary ID(s) of Target Chain>
O00688,O00732,P06268,Q14225,Q68GS5,Q92795,Q9BZS2,Q9GZX1,Q9H2C9,Q9H3C9,Q9UMD7,Q9UMD8,Q9UMG5

> <UniProt (SwissProt) Alternative ID(s) of Target Chain>


> <UniProt (TrEMBL) Submitted Name of Target Chain>


> <UniProt (TrEMBL) Entry Name of Target Chain>


> <UniProt (TrEMBL) Primary ID of Target Chain>


> <UniProt (TrEMBL) Secondary ID(s) of Target Chain>


> <UniProt (TrEMBL) Alternative ID(s) of Target Chain>


> <training label>
7.62342

> <i_lp_mmshare_version>
54117

> <s_epik_input>
W0NIMl09Qz1bQ0hdW0NIMl1PYyhbY0hdMSljKFtPSF0pW2NIXWMoYzEyKW5bY0hdbmMyW05IXWMzW2NIXWMoQ2wpYyhGKVtjSF1bY0hdMw==

> <s_epik_cmdline>
J2VwaWtfcHl0aG9uJywgJy1waHQnLCAnMC4xJywgJy1waCcsICc3LjQnLCAnLXRuJywgJzgnLCAnLW1hJywgJzIwMCcsICctaW1hZScsICc8aW5maWxlLm1hZT4nLCAnLW9tYWUnLCAnPG91dGZpbGUubWFlPic=

> <r_epik_Ionization_Penalty>
  0.0954

> <r_epik_Ionization_Penalty_Charging>
  0.0000

> <r_epik_Ionization_Penalty_Neutral>
  0.0954

> <r_epik_State_Penalty>
  0.0854

> <r_epik_Charging_Adjusted_Penalty>
0.0854189426940439

> <i_epik_Tot_Q>
0

> <i_epik_Tot_abs_Q>
0

> <i_f3d_flags>
0

> <s_lp_Force_Field>
OPLS_2005

> <r_lp_Energy>
-5.266005

> <b_lp_Chiralities_Consistent>
1

> <s_lp_Variant>
BindingDB_50308831_mol_1-1

> <s_i_glide_gridfile>
struct_1_site_1

> <i_i_glide_lignum>
205

> <i_i_glide_rotatable_bonds>
6

> <r_i_docking_score>
-7.01936840301128

> <r_i_glide_ligand_efficiency>
-0.280774736120451

> <r_i_glide_ligand_efficiency_sa>
-0.820990307977347

> <r_i_glide_ligand_efficiency_ln>
-1.66380066501023

> <r_i_glide_gscore>
-7.10476840301128

> <r_i_glide_lipo>
-2.76614046943431

> <r_i_glide_hbond>
-0.32

> <r_i_glide_metal>
0

> <r_i_glide_rewards>
-2.12759106498195

> <r_i_glide_evdw>
-38.9362945556641

> <r_i_glide_ecoul>
-4.19162702560425

> <r_i_glide_erotb>
0.747986695775349

> <r_i_glide_esite>
-0.0634647827465262

> <r_i_glide_emodel>
-48.8094405118966

> <r_i_glide_energy>
-43.1279215812683

> <r_i_glide_einternal>
2.60589718818665

> <i_i_glide_confnum>
145

> <i_i_glide_posenum>
192

> <r_i_glide_eff_state_penalty>
0.0854

> <IC50 (nM)>
23.8

> <PMID>
19969465

> <r_glide_shape_similarity>
0.860573947429657

> <s_m_subgroup_title>
505 training

> <s_m_subgroupid>
pocket_pv

> <b_m_subgroup_collapsed>
0

$$$$
BindingDB_50102074_mol_1
                    3D
 Schrodinger Suite 2021-2.
 57 59  0  0  1  0            999 V2000
   22.0735   -0.1728   53.5020 C   0  0  0  0  0  0
   23.4397   -0.0992   53.8705 C   0  0  0  0  0  0
   21.2659   -1.1217   54.1854 C   0  0  0  0  0  0
   21.5158    0.6456   52.4930 C   0  0  0  0  0  0
   23.9443   -0.9066   54.8305 N   0  0  0  0  0  0
   19.8985   -1.2166   53.8407 C   0  0  0  0  0  0
   24.2870    0.8522   53.2737 N   0  0  0  0  0  0
   20.1513    0.5242   52.1465 C   0  0  0  0  0  0
   19.3239   -0.3928   52.8359 C   0  0  0  0  0  0
   27.9111   -0.0770   53.3908 C   0  0  0  0  0  0
   21.8019   -1.9085   55.1465 N   0  0  0  0  0  0
   26.5094   -0.2022   53.3308 C   0  0  0  0  0  0
   23.1004   -1.7523   55.4166 C   0  0  0  0  0  0
   25.6830    0.9493   53.3400 C   0  0  0  0  0  0
   28.4912    1.2076   53.4603 C   0  0  0  0  0  0
   27.6782    2.3634   53.4309 C   0  0  0  0  0  0
   28.9051   -1.4967   53.3776 Cl  0  0  0  0  0  0
   26.2751    2.2342   53.3686 C   0  0  0  0  0  0
   19.5964    4.2025   47.3104 N   0  3  0  0  0  0
   29.8334    1.3172   53.5796 F   0  0  0  0  0  0
   19.5615    1.3277   51.2028 O   0  0  0  0  0  0
   17.9880   -0.4089   52.4625 O   0  0  0  0  0  0
   19.3944    2.5604   49.2161 C   0  0  0  0  0  0
   19.9048    2.8118   47.7887 C   0  0  0  0  0  0
   20.2580    1.5440   49.9849 C   0  0  0  0  0  0
   20.6604    5.2019   47.7168 C   0  0  0  0  0  0
   19.2272    4.2687   45.8521 C   0  0  0  0  0  0
   17.0574   -1.1027   53.2820 C   0  0  0  0  0  0
   17.8161    3.7022   45.5486 C   0  0  0  0  0  0
   21.9478    5.1927   46.8264 C   0  0  0  0  0  0
   22.1282    1.3765   51.9937 H   0  0  0  0  0  0
   19.2914   -1.9276   54.3800 H   0  0  0  0  0  0
   23.8186    1.6299   52.8300 H   0  0  0  0  0  0
   26.0739   -1.1884   53.2765 H   0  0  0  0  0  0
   23.5211   -2.4105   56.1598 H   0  0  0  0  0  0
   28.1286    3.3451   53.4766 H   0  0  0  0  0  0
   25.6668    3.1264   53.3610 H   0  0  0  0  0  0
   19.3819    3.4893   49.8018 H   0  0  0  0  0  0
   18.3578    2.2072   49.1632 H   0  0  0  0  0  0
   19.4453    2.0578   47.1466 H   0  0  0  0  0  0
   20.9794    2.6340   47.7233 H   0  0  0  0  0  0
   20.3948    0.5888   49.4705 H   0  0  0  0  0  0
   21.2541    1.9695   50.1351 H   0  0  0  0  0  0
   20.9274    5.0326   48.7655 H   0  0  0  0  0  0
   20.2205    6.2042   47.6816 H   0  0  0  0  0  0
   19.2435    5.3048   45.5071 H   0  0  0  0  0  0
   19.9811    3.7407   45.2627 H   0  0  0  0  0  0
   16.0423   -0.8452   52.9808 H   0  0  0  0  0  0
   17.1791   -2.1811   53.1774 H   0  0  0  0  0  0
   17.1698   -0.8262   54.3304 H   0  0  0  0  0  0
   17.5713    3.8073   44.4911 H   0  0  0  0  0  0
   17.7344    2.6371   45.7831 H   0  0  0  0  0  0
   17.0444    4.2292   46.1140 H   0  0  0  0  0  0
   22.7577    5.8053   47.2384 H   0  0  0  0  0  0
   21.7135    5.5966   45.8397 H   0  0  0  0  0  0
   22.3416    4.1876   46.6890 H   0  0  0  0  0  0
   18.7503    4.4893   47.8133 H   0  0  0  0  0  0
  1  2  2  0  0  0
  1  3  1  0  0  0
  1  4  1  0  0  0
  2  5  1  0  0  0
  2  7  1  0  0  0
  3  6  1  0  0  0
  3 11  2  0  0  0
  4  8  2  0  0  0
  4 31  1  0  0  0
  5 13  2  0  0  0
  6  9  2  0  0  0
  6 32  1  0  0  0
  7 14  1  0  0  0
  7 33  1  0  0  0
  8  9  1  0  0  0
  8 21  1  0  0  0
  9 22  1  0  0  0
 10 12  2  0  0  0
 10 15  1  0  0  0
 10 17  1  0  0  0
 11 13  1  0  0  0
 12 14  1  0  0  0
 12 34  1  0  0  0
 13 35  1  0  0  0
 14 18  2  0  0  0
 15 16  2  0  0  0
 15 20  1  0  0  0
 16 18  1  0  0  0
 16 36  1  0  0  0
 18 37  1  0  0  0
 19 24  1  0  0  0
 19 26  1  0  0  0
 19 27  1  0  0  0
 19 57  1  0  0  0
 21 25  1  0  0  0
 22 28  1  0  0  0
 23 24  1  0  0  0
 23 25  1  0  0  0
 23 38  1  0  0  0
 23 39  1  0  0  0
 24 40  1  0  0  0
 24 41  1  0  0  0
 25 42  1  0  0  0
 25 43  1  0  0  0
 26 30  1  0  0  0
 26 44  1  0  0  0
 26 45  1  0  0  0
 27 29  1  0  0  0
 27 46  1  0  0  0
 27 47  1  0  0  0
 28 48  1  0  0  0
 28 49  1  0  0  0
 28 50  1  0  0  0
 29 51  1  0  0  0
 29 52  1  0  0  0
 29 53  1  0  0  0
 30 54  1  0  0  0
 30 55  1  0  0  0
 30 56  1  0  0  0
M  CHG  1  19   1
M  END
> <s_m_entry_id>
376

> <s_m_entry_name>
pocket_pv.187

> <s_m_Source_Path>
/home/bortolaa/Project/GT/mario-master/docking/set505protein_struct_1_site_1_set505ligs_train

> <s_m_Source_File>
pocket_pv.maegz

> <i_m_Source_File_Index>
187

> <From>
www.bindingDB.org

> <BindingDB Reactant_set_id>
50733040

> <Ligand InChI>
InChI=1S/C22H26ClFN4O2/c1-4-28(5-2)9-6-10-30-21-12-16-19(13-20(21)29-3)25-14-26-22(16)27-15-7-8-18(24)17(23)11-15/h7-8,11-14H,4-6,9-10H2,1-3H3,(H,25,26,27)

> <Ligand InChI Key>
JJKSOLDGGFGXJF-UHFFFAOYSA-N

> <BindingDB MonomerID>
50102074

> <BindingDB Ligand Name>
(3-Chloro-4-fluoro-phenyl)-[6-(3-diethylamino-propoxy)-7-methoxy-quinazolin-4-yl]-amine::CHEMBL55425

> <Target Name Assigned by Curator or DataSource>
Epidermal growth factor receptor

> <Target Source Organism According to Curator or DataSource>
Homo sapiens

> <Ki (nM)>


> <Kd (nM)>


> <EC50 (nM)>


> <kon (M-1-s-1)>


> <koff (s-1)>


> <pH>


> <Temp C>


> <Curation/DataSource>
ChEMBL

> <Article DOI>
10.1016/s0960-894x(01)00344-4

> <PubChem AID>


> <Patent Number>


> <Authors>
Barker, AJ; Gibson, KH; Grundy, W; Godfrey, AA; Barlow, JJ; Healy, MP; Woodburn, JR; Ashton, SE; Curry, BJ; Scarlett, L; Henthorn, L; Richards, L

> <Institution>
AstraZeneca

> <Link to Ligand in BindingDB>
http://www.bindingdb.org/bind/chemsearch/marvin/MolStructure.jsp?monomerid=50102074

> <Link to Ligand-Target Pair in BindingDB>
http://www.bindingdb.org/jsp/dbsearch/PrimarySearch_ki.jsp?energyterm=kJ/mole&tag=r21&monomerid=50102074&enzyme=Epidermal+growth+factor+receptor&column=ki&startPg=0&Increment=50&submit=Search

> <Ligand HET ID in PDB>


> <PDB ID(s) for Ligand-Target Complex>


> <PubChem CID>
19077488

> <PubChem SID>
103998631

> <ChEBI ID of Ligand>


> <ChEMBL ID of Ligand>
CHEMBL55425

> <DrugBank ID of Ligand>


> <IUPHAR_GRAC ID of Ligand>


> <KEGG ID of Ligand>


> <ZINC ID of Ligand>
ZINC01893557

> <Number of Protein Chains in Target (>
1

> <BindingDB Target Chain Sequence>
MRPSGTAGAALLALLAALCPASRALEEKKVCQGTSNKLTQLGTFEDHFLSLQRMFNNCEVVLGNLEITYVQRNYDLSFLKTIQEVAGYVLIALNTVERIPLENLQIIRGNMYYENSYALAVLSNYDANKTGLKELPMRNLQEILHGAVRFSNNPALCNVESIQWRDIVSSDFLSNMSMDFQNHLGSCQKCDPSCPNGSCWGAGEENCQKLTKIICAQQCSGRCRGKSPSDCCHNQCAAGCTGPRESDCLVCRKFRDEATCKDTCPPLMLYNPTTYQMDVNPEGKYSFGATCVKKCPRNYVVTDHGSCVRACGADSYEMEEDGVRKCKKCEGPCRKVCNGIGIGEFKDSLSINATNIKHFKNCTSISGDLHILPVAFRGDSFTHTPPLDPQELDILKTVKEITGFLLIQAWPENRTDLHAFENLEIIRGRTKQHGQFSLAVVSLNITSLGLRSLKEISDGDVIISGNKNLCYANTINWKKLFGTSGQKTKIISNRGENSCKATGQVCHALCSPEGCWGPEPRDCVSCRNVSRGRECVDKCNLLEGEPREFVENSECIQCHPECLPQAMNITCTGRGPDNCIQCAHYIDGPHCVKTCPAGVMGENNTLVWKYADAGHVCHLCHPNCTYGCTGPGLEGCPTNGPKIPSIATGMVGALLLLLVVALGIGLFMRRRHIVRKRTLRRLLQERELVEPLTPSGEAPNQALLRILKETEFKKIKVLGSGAFGTVYKGLWIPEGEKVKIPVAIKELREATSPKANKEILDEAYVMASVDNPHVCRLLGICLTSTVQLITQLMPFGCLLDYVREHKDNIGSQYLLNWCVQIAKGMNYLEDRRLVHRDLAARNVLVKTPQHVKITDFGLAKLLGAEEKEYHAEGGKVPIKWMALESILHRIYTHQSDVWSYGVTVWELMTFGSKPYDGIPASEISSILEKGERLPQPPICTIDVYMIMVKCWMIDADSRPKFRELIIEFSKMARDPQRYLVIQGDERMHLPSPTDSNFYRALMDEEDMDDVVDADEYLIPQQGFFSSPSTSRTPLLSSLSATSNNSTVACIDRNGLQSCPIKEDSFLQRYSSDPTGALTEDSIDDTFLPVPEYINQSVPKRPAGSVQNPVYHNQPLNPAPSRDPHYQDPHSTAVGNPEYLNTVQPTCVNSTFDSPAHWAQKGSHQISLDNPDYQQDFFPKEAKPNGIFKGSTAENAEYLRVAPQSSEFIGA

> <PDB ID(s) of Target Chain>
1IVO,1M14,1M17,1MOX,1XKK,1Z9I,2GS2,2GS6,2ITW,2ITX,2ITY,2J5E,2J5F,2J6M,2RF9,2RGP,3B2V,3BEL,3GOP,3POZ,3QWQ,3VJO,3W2O,3W2P,3W2Q,3W2R,3W2S,3W32,3W33,4G5J,4I23,4JQ7,4JQ8,4JR3,4JRV,4KRO,4LI5,4RJ4,4RJ5,4RJ6,4RJ7,4RJ8,4TKS,4UIP,4UV7,4WKQ,4WRG,4ZAU,5C8K,5C8M,5C8N,5CAL,5CAN,5CAO,5CAP,5CAQ,5CAS,5CAU,5CAV,5EDP,5EDQ,5EDR,5EM5,5EM6,5EM7,5EM8,5FED,5GNK,5HCX,5HCY,5HCZ,5HIB,5HIC,5UGB,5WB7,5WB8,5Y25,6S89,6S8A

> <UniProt (SwissProt) Recommended Name of Target Chain>
Epidermal growth factor receptor

> <UniProt (SwissProt) Entry Name of Target Chain>
EGFR_HUMAN

> <UniProt (SwissProt) Primary ID of Target Chain>
P00533

> <UniProt (SwissProt) Secondary ID(s) of Target Chain>
O00688,O00732,P06268,Q14225,Q68GS5,Q92795,Q9BZS2,Q9GZX1,Q9H2C9,Q9H3C9,Q9UMD7,Q9UMD8,Q9UMG5

> <UniProt (SwissProt) Alternative ID(s) of Target Chain>


> <UniProt (TrEMBL) Submitted Name of Target Chain>


> <UniProt (TrEMBL) Entry Name of Target Chain>


> <UniProt (TrEMBL) Primary ID of Target Chain>


> <UniProt (TrEMBL) Secondary ID(s) of Target Chain>


> <UniProt (TrEMBL) Alternative ID(s) of Target Chain>


> <training label>
7.24413

> <i_lp_mmshare_version>
54117

> <s_epik_input>
W0NIM11bQ0gyXU4oW0NIMl1bQ0gzXSlbQ0gyXVtDSDJdW0NIMl1PYyhbY0hdMSljKE9bQ0gzXSlbY0hdYyhjMTIpbltjSF1uYzJbTkhdYyhbY0hdYzNDbClbY0hdW2NIXWMzRg==

> <s_epik_cmdline>
J2VwaWtfcHl0aG9uJywgJy1waHQnLCAnMC4xJywgJy1waCcsICc3LjQnLCAnLXRuJywgJzgnLCAnLW1hJywgJzIwMCcsICctaW1hZScsICc8aW5maWxlLm1hZT4nLCAnLW9tYWUnLCAnPG91dGZpbGUubWFlPic=

> <r_lp_tautomer_probability>
1

> <r_epik_Ionization_Penalty>
  0.0114

> <r_epik_Ionization_Penalty_Charging>
  0.0109

> <r_epik_Ionization_Penalty_Neutral>
  0.0005

> <r_epik_State_Penalty>
  0.0000

> <r_epik_Charging_Adjusted_Penalty>
0.0109419619178317

> <i_epik_Tot_Q>
1

> <i_epik_Tot_abs_Q>
1

> <i_f3d_flags>
0

> <s_lp_Force_Field>
OPLS_2005

> <r_lp_Energy>
26.478991

> <b_lp_Chiralities_Consistent>
1

> <s_lp_Variant>
BindingDB_50102074_mol_1-1

> <s_i_glide_gridfile>
struct_1_site_1

> <i_i_glide_lignum>
184

> <i_i_glide_rotatable_bonds>
10

> <r_i_docking_score>
-7.00234552718566

> <r_i_glide_ligand_efficiency>
-0.233411517572855

> <r_i_glide_ligand_efficiency_sa>
-0.725263853844141

> <r_i_glide_ligand_efficiency_ln>
-1.59100920044198

> <r_i_glide_gscore>
-7.00234552718566

> <r_i_glide_lipo>
-2.9796059735779

> <r_i_glide_hbond>
-0.32

> <r_i_glide_metal>
0

> <r_i_glide_rewards>
-1.59591308430652

> <r_i_glide_evdw>
-42.4183502197266

> <r_i_glide_ecoul>
-4.40190696716309

> <r_i_glide_erotb>
0.740229698661801

> <r_i_glide_esite>
-0.0658526119022474

> <r_i_glide_emodel>
-53.8468509176662

> <r_i_glide_energy>
-46.8202571868896

> <r_i_glide_einternal>
5.57595539093018

> <i_i_glide_confnum>
184

> <i_i_glide_posenum>
257

> <r_i_glide_eff_state_penalty>
0

> <IC50 (nM)>
57

> <PMID>
11459659

> <r_glide_shape_similarity>
0.826730608940125

> <s_m_subgroup_title>
505 training

> <s_m_subgroupid>
pocket_pv

> <b_m_subgroup_collapsed>
0

$$$$
BindingDB_50144606_mol_1
                    3D
 Schrodinger Suite 2021-2.
 44 47  0  0  1  0            999 V2000
   24.6492    0.7160   53.0286 N   0  0  0  0  0  0
   26.1343    0.9015   52.8899 C   0  0  1  0  0  0
   23.9326   -0.1410   53.8404 C   0  0  0  0  0  0
   22.5747   -0.0021   53.4598 C   0  0  0  0  0  0
   22.4338    0.9636   52.4901 N   0  0  0  0  0  0
   26.7824    1.6094   54.0584 C   0  0  2  0  0  0
   23.6987    1.3383   52.3107 C   0  0  0  0  0  0
   26.7816   -0.3323   52.7642 O   0  0  0  0  0  0
   28.1801    1.0787   53.9767 C   0  0  1  0  0  0
   27.8999   -0.3853   53.6527 C   0  0  2  0  0  0
   21.6762   -0.8443   54.1333 C   0  0  0  0  0  0
   24.3992   -0.9689   54.8112 N   0  0  0  0  0  0
   22.1140   -1.6645   55.1024 N   0  0  0  0  0  0
   19.9624   -0.8876   53.8749 S   0  0  0  0  0  0
   23.4141   -1.6666   55.3814 C   0  0  0  0  0  0
   26.2889    1.1340   55.2814 O   0  0  0  0  0  0
   28.9073    1.7420   52.9747 O   0  0  0  0  0  0
   19.5022   -0.2132   52.2678 C   0  0  0  0  0  0
   15.2047    0.0486   52.4779 C   0  0  0  0  0  0
   17.9962   -0.1651   52.2284 C   0  0  0  0  0  0
   29.1166   -1.1665   53.1794 C   0  0  0  0  0  0
   13.1711    0.2443   52.8574 I   0  0  0  0  0  0
   15.9355    1.0815   51.8746 C   0  0  0  0  0  0
   15.8501   -1.1249   52.8661 C   0  0  0  0  0  0
   17.3336    0.9768   51.7539 C   0  0  0  0  0  0
   17.2385   -1.2376   52.7329 C   0  0  0  0  0  0
   28.9064   -2.5530   53.2750 O   0  0  0  0  0  0
   26.2638    1.4542   51.9571 H   0  0  0  0  0  0
   26.7009    2.6958   53.9833 H   0  0  0  0  0  0
   23.9512    2.0889   51.5752 H   0  0  0  0  0  0
   28.7235    1.1928   54.9170 H   0  0  0  0  0  0
   27.5527   -0.8719   54.5648 H   0  0  0  0  0  0
   23.7203   -2.3438   56.1649 H   0  0  0  0  0  0
   25.8206    0.3234   55.0999 H   0  0  0  0  0  0
   29.7757    1.9294   53.3098 H   0  0  0  0  0  0
   19.9070    0.7877   52.1305 H   0  0  0  0  0  0
   19.8461   -0.8591   51.4623 H   0  0  0  0  0  0
   29.9710   -0.9289   53.8148 H   0  0  0  0  0  0
   29.3956   -0.8901   52.1748 H   0  0  0  0  0  0
   15.4327    1.9833   51.5565 H   0  0  0  0  0  0
   15.2848   -1.9306   53.3102 H   0  0  0  0  0  0
   17.8946    1.8033   51.3420 H   0  0  0  0  0  0
   17.7135   -2.1459   53.0714 H   0  0  0  0  0  0
   28.5425   -2.7566   54.1247 H   0  0  0  0  0  0
  1  2  1  0  0  0
  1  3  1  0  0  0
  1  7  1  0  0  0
  2  6  1  0  0  0
  2  8  1  0  0  0
  2 28  1  0  0  0
  3  4  2  0  0  0
  3 12  1  0  0  0
  4 11  1  0  0  0
  4  5  1  0  0  0
  5  7  2  0  0  0
  6  9  1  0  0  0
  6 16  1  0  0  0
  6 29  1  0  0  0
  7 30  1  0  0  0
  8 10  1  0  0  0
  9 17  1  0  0  0
  9 10  1  0  0  0
  9 31  1  0  0  0
 10 21  1  0  0  0
 10 32  1  0  0  0
 11 14  1  0  0  0
 11 13  2  0  0  0
 12 15  2  0  0  0
 13 15  1  0  0  0
 14 18  1  0  0  0
 15 33  1  0  0  0
 16 34  1  0  0  0
 17 35  1  0  0  0
 18 20  1  0  0  0
 18 36  1  0  0  0
 18 37  1  0  0  0
 19 24  2  0  0  0
 19 22  1  0  0  0
 19 23  1  0  0  0
 20 25  1  0  0  0
 20 26  2  0  0  0
 21 27  1  0  0  0
 21 38  1  0  0  0
 21 39  1  0  0  0
 23 25  2  0  0  0
 23 40  1  0  0  0
 24 26  1  0  0  0
 24 41  1  0  0  0
 25 42  1  0  0  0
 26 43  1  0  0  0
 27 44  1  0  0  0
M  END
> <s_m_entry_id>
377

> <s_m_entry_name>
pocket_pv.188

> <s_m_Source_Path>
/home/bortolaa/Project/GT/mario-master/docking/set505protein_struct_1_site_1_set505ligs_train

> <s_m_Source_File>
pocket_pv.maegz

> <i_m_Source_File_Index>
188

> <From>
www.bindingDB.org

> <BindingDB Reactant_set_id>
50463846

> <Ligand InChI>
InChI=1S/C29H23ClN4O3/c1-36-26-15-23-25(16-27(26)37-17-19-7-3-2-4-8-19)31-18-32-28(23)33-20-11-13-21(14-12-20)34-29(35)22-9-5-6-10-24(22)30/h2-16,18H,17H2,1H3,(H,34,35)(H,31,32,33)

> <Ligand InChI Key>
JASSTMZJDQXQFP-UHFFFAOYSA-N

> <BindingDB MonomerID>
50144606

> <BindingDB Ligand Name>
CHEMBL3759203

> <Target Name Assigned by Curator or DataSource>
Epidermal growth factor receptor

> <Target Source Organism According to Curator or DataSource>
Homo sapiens

> <Ki (nM)>


> <IC50 (nM)>
730

> <Kd (nM)>


> <EC50 (nM)>


> <kon (M-1-s-1)>


> <koff (s-1)>


> <pH>


> <Temp C>


> <Curation/DataSource>
ChEMBL

> <Article DOI>
10.1016/j.ejmech.2015.12.032

> <PubChem AID>


> <Patent Number>


> <Authors>
Zhang, HQ; Gong, FH; Li, CG; Zhang, C; Wang, YJ; Xu, YG; Sun, LP

> <Institution>
China Pharmaceutical University

> <Link to Ligand in BindingDB>
http://www.bindingdb.org/bind/chemsearch/marvin/MolStructure.jsp?monomerid=50144606

> <Link to Ligand-Target Pair in BindingDB>
http://www.bindingdb.org/jsp/dbsearch/PrimarySearch_ki.jsp?energyterm=kJ/mole&tag=r21&monomerid=50144606&enzyme=Epidermal+growth+factor+receptor&column=ki&startPg=0&Increment=50&submit=Search

> <Ligand HET ID in PDB>


> <PDB ID(s) for Ligand-Target Complex>


> <PubChem CID>
44312149

> <PubChem SID>
104033684

> <ChEBI ID of Ligand>


> <ChEMBL ID of Ligand>
CHEMBL3759203

> <DrugBank ID of Ligand>


> <IUPHAR_GRAC ID of Ligand>


> <KEGG ID of Ligand>


> <ZINC ID of Ligand>
ZINC36332177

> <Number of Protein Chains in Target (>
1

> <BindingDB Target Chain Sequence>
MRPSGTAGAALLALLAALCPASRALEEKKVCQGTSNKLTQLGTFEDHFLSLQRMFNNCEVVLGNLEITYVQRNYDLSFLKTIQEVAGYVLIALNTVERIPLENLQIIRGNMYYENSYALAVLSNYDANKTGLKELPMRNLQEILHGAVRFSNNPALCNVESIQWRDIVSSDFLSNMSMDFQNHLGSCQKCDPSCPNGSCWGAGEENCQKLTKIICAQQCSGRCRGKSPSDCCHNQCAAGCTGPRESDCLVCRKFRDEATCKDTCPPLMLYNPTTYQMDVNPEGKYSFGATCVKKCPRNYVVTDHGSCVRACGADSYEMEEDGVRKCKKCEGPCRKVCNGIGIGEFKDSLSINATNIKHFKNCTSISGDLHILPVAFRGDSFTHTPPLDPQELDILKTVKEITGFLLIQAWPENRTDLHAFENLEIIRGRTKQHGQFSLAVVSLNITSLGLRSLKEISDGDVIISGNKNLCYANTINWKKLFGTSGQKTKIISNRGENSCKATGQVCHALCSPEGCWGPEPRDCVSCRNVSRGRECVDKCNLLEGEPREFVENSECIQCHPECLPQAMNITCTGRGPDNCIQCAHYIDGPHCVKTCPAGVMGENNTLVWKYADAGHVCHLCHPNCTYGCTGPGLEGCPTNGPKIPSIATGMVGALLLLLVVALGIGLFMRRRHIVRKRTLRRLLQERELVEPLTPSGEAPNQALLRILKETEFKKIKVLGSGAFGTVYKGLWIPEGEKVKIPVAIKELREATSPKANKEILDEAYVMASVDNPHVCRLLGICLTSTVQLITQLMPFGCLLDYVREHKDNIGSQYLLNWCVQIAKGMNYLEDRRLVHRDLAARNVLVKTPQHVKITDFGLAKLLGAEEKEYHAEGGKVPIKWMALESILHRIYTHQSDVWSYGVTVWELMTFGSKPYDGIPASEISSILEKGERLPQPPICTIDVYMIMVKCWMIDADSRPKFRELIIEFSKMARDPQRYLVIQGDERMHLPSPTDSNFYRALMDEEDMDDVVDADEYLIPQQGFFSSPSTSRTPLLSSLSATSNNSTVACIDRNGLQSCPIKEDSFLQRYSSDPTGALTEDSIDDTFLPVPEYINQSVPKRPAGSVQNPVYHNQPLNPAPSRDPHYQDPHSTAVGNPEYLNTVQPTCVNSTFDSPAHWAQKGSHQISLDNPDYQQDFFPKEAKPNGIFKGSTAENAEYLRVAPQSSEFIGA

> <PDB ID(s) of Target Chain>
1IVO,1M14,1M17,1MOX,1XKK,1Z9I,2GS2,2GS6,2ITW,2ITX,2ITY,2J5E,2J5F,2J6M,2RF9,2RGP,3B2V,3BEL,3GOP,3POZ,3QWQ,3VJO,3W2O,3W2P,3W2Q,3W2R,3W2S,3W32,3W33,4G5J,4I23,4JQ7,4JQ8,4JR3,4JRV,4KRO,4LI5,4RJ4,4RJ5,4RJ6,4RJ7,4RJ8,4TKS,4UIP,4UV7,4WKQ,4WRG,4ZAU,5C8K,5C8M,5C8N,5CAL,5CAN,5CAO,5CAP,5CAQ,5CAS,5CAU,5CAV,5EDP,5EDQ,5EDR,5EM5,5EM6,5EM7,5EM8,5FED,5GNK,5HCX,5HCY,5HCZ,5HIB,5HIC,5UGB,5WB7,5WB8,5Y25,6S89,6S8A

> <UniProt (SwissProt) Recommended Name of Target Chain>
Epidermal growth factor receptor

> <UniProt (SwissProt) Entry Name of Target Chain>
EGFR_HUMAN

> <UniProt (SwissProt) Primary ID of Target Chain>
P00533

> <UniProt (SwissProt) Secondary ID(s) of Target Chain>
O00688,O00732,P06268,Q14225,Q68GS5,Q92795,Q9BZS2,Q9GZX1,Q9H2C9,Q9H3C9,Q9UMD7,Q9UMD8,Q9UMG5

> <UniProt (SwissProt) Alternative ID(s) of Target Chain>


> <UniProt (TrEMBL) Submitted Name of Target Chain>


> <UniProt (TrEMBL) Entry Name of Target Chain>


> <UniProt (TrEMBL) Primary ID of Target Chain>


> <UniProt (TrEMBL) Secondary ID(s) of Target Chain>


> <UniProt (TrEMBL) Alternative ID(s) of Target Chain>


> <training label>
6.13668

> <i_lp_mmshare_version>
54117

> <s_epik_input>
W09IXVtDSDJdW0NASF0oTzEpW0NAQEhdKFtPSF0pW0NASF0oW09IXSlbQ0BASF0xbjJbY0hdbmMoYzIzKWMobltjSF1uMylTW0NIMl1jKFtjSF1bY0hdNClbY0hdW2NIXWM0SQ==

> <s_epik_cmdline>
J2VwaWtfcHl0aG9uJywgJy1waHQnLCAnMC4xJywgJy1waCcsICc3LjQnLCAnLXRuJywgJzgnLCAnLW1hJywgJzIwMCcsICctaW1hZScsICc8aW5maWxlLm1hZT4nLCAnLW9tYWUnLCAnPG91dGZpbGUubWFlPic=

> <r_lp_tautomer_probability>
1

> <r_epik_Ionization_Penalty>
  0.0001

> <r_epik_Ionization_Penalty_Charging>
  0.0000

> <r_epik_Ionization_Penalty_Neutral>
  0.0001

> <r_epik_State_Penalty>
  0.0000

> <r_epik_Charging_Adjusted_Penalty>
0

> <i_epik_Tot_Q>
0

> <i_epik_Tot_abs_Q>
0

> <i_f3d_flags>
0

> <s_lp_Force_Field>
OPLS_2005

> <r_lp_Energy>
40.239776

> <b_lp_Chiralities_Consistent>
1

> <s_lp_Variant>
BindingDB_50144606_mol_1-2

> <s_i_glide_gridfile>
struct_1_site_1

> <i_i_glide_lignum>
81

> <i_i_glide_rotatable_bonds>
8

> <r_i_docking_score>
-6.9982753729038

> <r_i_glide_ligand_efficiency>
-0.259195384181622

> <r_i_glide_ligand_efficiency_sa>
-0.777586151690601

> <r_i_glide_ligand_efficiency_ln>
-1.62908313122539

> <r_i_glide_gscore>
-6.9982753729038

> <r_i_glide_lipo>
-2.25080268806416

> <r_i_glide_hbond>
-0.136121909190776

> <r_i_glide_metal>
0

> <r_i_glide_rewards>
-1.65671140897368

> <r_i_glide_evdw>
-35.2109184265137

> <r_i_glide_ecoul>
-10.6797361373901

> <r_i_glide_erotb>
0.407866975259027

> <r_i_glide_esite>
0

> <r_i_glide_emodel>
-40.8594507488979

> <r_i_glide_energy>
-45.8906545639038

> <r_i_glide_einternal>
5.57408952713013

> <i_i_glide_confnum>
27

> <i_i_glide_posenum>
198

> <r_i_glide_eff_state_penalty>
0

> <PMID>
26826581

> <s_epik_Chemistry_Notes>
This compound contains an acetal/aminal-like group ( X-CH(R)-Y where X, Y are N, S, or O) that may be acid/base labile, releasing an aldehyde.

> <r_glide_shape_similarity>
0.766690135002136

> <s_m_subgroup_title>
505 training

> <s_m_subgroupid>
pocket_pv

> <b_m_subgroup_collapsed>
0

$$$$
BindingDB_50102081_mol_1
                    3D
 Schrodinger Suite 2021-2.
 52 54  0  0  1  0            999 V2000
   22.0700   -0.1664   53.4962 C   0  0  0  0  0  0
   23.4386   -0.0972   53.8685 C   0  0  0  0  0  0
   21.2671   -1.1167   54.1860 C   0  0  0  0  0  0
   21.5073    0.6359   52.4689 C   0  0  0  0  0  0
   23.9433   -0.9050   54.8302 N   0  0  0  0  0  0
   19.8983   -1.2101   53.8516 C   0  0  0  0  0  0
   24.2862    0.8549   53.2736 N   0  0  0  0  0  0
   20.1389    0.4980   52.1101 C   0  0  0  0  0  0
   19.3206   -0.3992   52.8372 C   0  0  0  0  0  0
   27.9168   -0.0679   53.3850 C   0  0  0  0  0  0
   21.8023   -1.9044   55.1475 N   0  0  0  0  0  0
   26.5135   -0.1973   53.3290 C   0  0  0  0  0  0
   23.0997   -1.7510   55.4183 C   0  0  0  0  0  0
   25.6840    0.9513   53.3400 C   0  0  0  0  0  0
   28.4961    1.2178   53.4580 C   0  0  0  0  0  0
   27.6776    2.3681   53.4302 C   0  0  0  0  0  0
   28.9175   -1.4832   53.3747 Cl  0  0  0  0  0  0
   26.2748    2.2358   53.3692 C   0  0  0  0  0  0
   29.8380    1.3354   53.5850 F   0  0  0  0  0  0
   17.9819   -0.4310   52.4783 O   0  0  0  0  0  0
   19.5252    1.1650   51.0598 O   0  0  0  0  0  0
   21.6611    3.8913   49.6374 N   0  3  0  0  0  0
   24.5159    4.8573   49.4381 O   0  0  0  0  0  0
   22.1909    5.1604   50.2312 C   0  0  0  0  0  0
   20.6063    3.2387   50.4666 C   0  0  0  0  0  0
   20.3116    1.7819   50.0423 C   0  0  0  0  0  0
   23.3827    5.7386   49.4188 C   0  0  0  0  0  0
   17.0661   -1.1546   53.2898 C   0  0  0  0  0  0
   25.3784    5.0142   50.5704 C   0  0  0  0  0  0
   22.1376    1.3254   51.9320 H   0  0  0  0  0  0
   19.2951   -1.9142   54.4034 H   0  0  0  0  0  0
   23.8192    1.6334   52.8330 H   0  0  0  0  0  0
   26.0808   -1.1855   53.2739 H   0  0  0  0  0  0
   23.5138   -2.3975   56.1767 H   0  0  0  0  0  0
   28.1225    3.3522   53.4782 H   0  0  0  0  0  0
   25.6644    3.1282   53.3639 H   0  0  0  0  0  0
   21.2752    4.0870   48.7161 H   0  0  0  0  0  0
   22.5007    4.9874   51.2628 H   0  0  0  0  0  0
   21.3826    5.8927   50.2669 H   0  0  0  0  0  0
   20.9373    3.2497   51.5051 H   0  0  0  0  0  0
   19.6928    3.8346   50.4337 H   0  0  0  0  0  0
   19.7467    1.7728   49.1098 H   0  0  0  0  0  0
   21.2258    1.2171   49.8522 H   0  0  0  0  0  0
   23.6618    6.7262   49.7897 H   0  0  0  0  0  0
   23.0781    5.8761   48.3804 H   0  0  0  0  0  0
   16.0472   -0.9544   52.9589 H   0  0  0  0  0  0
   17.2379   -2.2281   53.2077 H   0  0  0  0  0  0
   17.1376   -0.8674   54.3391 H   0  0  0  0  0  0
   26.2127    4.3160   50.4994 H   0  0  0  0  0  0
   24.8535    4.8138   51.5034 H   0  0  0  0  0  0
   25.7926    6.0224   50.6145 H   0  0  0  0  0  0
   22.4477    3.2514   49.5274 H   0  0  0  0  0  0
  1  2  2  0  0  0
  1  3  1  0  0  0
  1  4  1  0  0  0
  2  5  1  0  0  0
  2  7  1  0  0  0
  3  6  1  0  0  0
  3 11  2  0  0  0
  4  8  2  0  0  0
  4 30  1  0  0  0
  5 13  2  0  0  0
  6  9  2  0  0  0
  6 31  1  0  0  0
  7 14  1  0  0  0
  7 32  1  0  0  0
  8  9  1  0  0  0
  8 21  1  0  0  0
  9 20  1  0  0  0
 10 12  2  0  0  0
 10 15  1  0  0  0
 10 17  1  0  0  0
 11 13  1  0  0  0
 12 14  1  0  0  0
 12 33  1  0  0  0
 13 34  1  0  0  0
 14 18  2  0  0  0
 15 16  2  0  0  0
 15 19  1  0  0  0
 16 18  1  0  0  0
 16 35  1  0  0  0
 18 36  1  0  0  0
 20 28  1  0  0  0
 21 26  1  0  0  0
 22 24  1  0  0  0
 22 25  1  0  0  0
 22 37  1  0  0  0
 22 52  1  0  0  0
 23 27  1  0  0  0
 23 29  1  0  0  0
 24 27  1  0  0  0
 24 38  1  0  0  0
 24 39  1  0  0  0
 25 26  1  0  0  0
 25 40  1  0  0  0
 25 41  1  0  0  0
 26 42  1  0  0  0
 26 43  1  0  0  0
 27 44  1  0  0  0
 27 45  1  0  0  0
 28 46  1  0  0  0
 28 47  1  0  0  0
 28 48  1  0  0  0
 29 49  1  0  0  0
 29 50  1  0  0  0
 29 51  1  0  0  0
M  CHG  1  22   1
M  END
> <s_m_entry_id>
378

> <s_m_entry_name>
pocket_pv.189

> <s_m_Source_Path>
/home/bortolaa/Project/GT/mario-master/docking/set505protein_struct_1_site_1_set505ligs_train

> <s_m_Source_File>
pocket_pv.maegz

> <i_m_Source_File_Index>
189

> <From>
www.bindingDB.org

> <BindingDB Reactant_set_id>
50733033

> <Ligand InChI>
InChI=1S/C20H22ClFN4O3/c1-27-7-5-23-6-8-29-19-10-14-17(11-18(19)28-2)24-12-25-20(14)26-13-3-4-16(22)15(21)9-13/h3-4,9-12,23H,5-8H2,1-2H3,(H,24,25,26)

> <Ligand InChI Key>
FDBDZTQUOIKCIZ-UHFFFAOYSA-N

> <BindingDB MonomerID>
50102081

> <BindingDB Ligand Name>
(3-Chloro-4-fluoro-phenyl)-{7-methoxy-6-[2-(2-methoxy-ethylamino)-ethoxy]-quinazolin-4-yl}-amine::CHEMBL56912

> <Target Name Assigned by Curator or DataSource>
Epidermal growth factor receptor

> <Target Source Organism According to Curator or DataSource>
Homo sapiens

> <Ki (nM)>


> <Kd (nM)>


> <EC50 (nM)>


> <kon (M-1-s-1)>


> <koff (s-1)>


> <pH>


> <Temp C>


> <Curation/DataSource>
ChEMBL

> <Article DOI>
10.1016/s0960-894x(01)00344-4

> <PubChem AID>


> <Patent Number>


> <Authors>
Barker, AJ; Gibson, KH; Grundy, W; Godfrey, AA; Barlow, JJ; Healy, MP; Woodburn, JR; Ashton, SE; Curry, BJ; Scarlett, L; Henthorn, L; Richards, L

> <Institution>
AstraZeneca

> <Link to Ligand in BindingDB>
http://www.bindingdb.org/bind/chemsearch/marvin/MolStructure.jsp?monomerid=50102081

> <Link to Ligand-Target Pair in BindingDB>
http://www.bindingdb.org/jsp/dbsearch/PrimarySearch_ki.jsp?energyterm=kJ/mole&tag=r21&monomerid=50102081&enzyme=Epidermal+growth+factor+receptor&column=ki&startPg=0&Increment=50&submit=Search

> <Ligand HET ID in PDB>


> <PDB ID(s) for Ligand-Target Complex>


> <PubChem CID>
44299983

> <PubChem SID>
103998638

> <ChEBI ID of Ligand>


> <ChEMBL ID of Ligand>
CHEMBL56912

> <DrugBank ID of Ligand>


> <IUPHAR_GRAC ID of Ligand>


> <KEGG ID of Ligand>


> <ZINC ID of Ligand>
ZINC29556442

> <Number of Protein Chains in Target (>
1

> <BindingDB Target Chain Sequence>
MRPSGTAGAALLALLAALCPASRALEEKKVCQGTSNKLTQLGTFEDHFLSLQRMFNNCEVVLGNLEITYVQRNYDLSFLKTIQEVAGYVLIALNTVERIPLENLQIIRGNMYYENSYALAVLSNYDANKTGLKELPMRNLQEILHGAVRFSNNPALCNVESIQWRDIVSSDFLSNMSMDFQNHLGSCQKCDPSCPNGSCWGAGEENCQKLTKIICAQQCSGRCRGKSPSDCCHNQCAAGCTGPRESDCLVCRKFRDEATCKDTCPPLMLYNPTTYQMDVNPEGKYSFGATCVKKCPRNYVVTDHGSCVRACGADSYEMEEDGVRKCKKCEGPCRKVCNGIGIGEFKDSLSINATNIKHFKNCTSISGDLHILPVAFRGDSFTHTPPLDPQELDILKTVKEITGFLLIQAWPENRTDLHAFENLEIIRGRTKQHGQFSLAVVSLNITSLGLRSLKEISDGDVIISGNKNLCYANTINWKKLFGTSGQKTKIISNRGENSCKATGQVCHALCSPEGCWGPEPRDCVSCRNVSRGRECVDKCNLLEGEPREFVENSECIQCHPECLPQAMNITCTGRGPDNCIQCAHYIDGPHCVKTCPAGVMGENNTLVWKYADAGHVCHLCHPNCTYGCTGPGLEGCPTNGPKIPSIATGMVGALLLLLVVALGIGLFMRRRHIVRKRTLRRLLQERELVEPLTPSGEAPNQALLRILKETEFKKIKVLGSGAFGTVYKGLWIPEGEKVKIPVAIKELREATSPKANKEILDEAYVMASVDNPHVCRLLGICLTSTVQLITQLMPFGCLLDYVREHKDNIGSQYLLNWCVQIAKGMNYLEDRRLVHRDLAARNVLVKTPQHVKITDFGLAKLLGAEEKEYHAEGGKVPIKWMALESILHRIYTHQSDVWSYGVTVWELMTFGSKPYDGIPASEISSILEKGERLPQPPICTIDVYMIMVKCWMIDADSRPKFRELIIEFSKMARDPQRYLVIQGDERMHLPSPTDSNFYRALMDEEDMDDVVDADEYLIPQQGFFSSPSTSRTPLLSSLSATSNNSTVACIDRNGLQSCPIKEDSFLQRYSSDPTGALTEDSIDDTFLPVPEYINQSVPKRPAGSVQNPVYHNQPLNPAPSRDPHYQDPHSTAVGNPEYLNTVQPTCVNSTFDSPAHWAQKGSHQISLDNPDYQQDFFPKEAKPNGIFKGSTAENAEYLRVAPQSSEFIGA

> <PDB ID(s) of Target Chain>
1IVO,1M14,1M17,1MOX,1XKK,1Z9I,2GS2,2GS6,2ITW,2ITX,2ITY,2J5E,2J5F,2J6M,2RF9,2RGP,3B2V,3BEL,3GOP,3POZ,3QWQ,3VJO,3W2O,3W2P,3W2Q,3W2R,3W2S,3W32,3W33,4G5J,4I23,4JQ7,4JQ8,4JR3,4JRV,4KRO,4LI5,4RJ4,4RJ5,4RJ6,4RJ7,4RJ8,4TKS,4UIP,4UV7,4WKQ,4WRG,4ZAU,5C8K,5C8M,5C8N,5CAL,5CAN,5CAO,5CAP,5CAQ,5CAS,5CAU,5CAV,5EDP,5EDQ,5EDR,5EM5,5EM6,5EM7,5EM8,5FED,5GNK,5HCX,5HCY,5HCZ,5HIB,5HIC,5UGB,5WB7,5WB8,5Y25,6S89,6S8A

> <UniProt (SwissProt) Recommended Name of Target Chain>
Epidermal growth factor receptor

> <UniProt (SwissProt) Entry Name of Target Chain>
EGFR_HUMAN

> <UniProt (SwissProt) Primary ID of Target Chain>
P00533

> <UniProt (SwissProt) Secondary ID(s) of Target Chain>
O00688,O00732,P06268,Q14225,Q68GS5,Q92795,Q9BZS2,Q9GZX1,Q9H2C9,Q9H3C9,Q9UMD7,Q9UMD8,Q9UMG5

> <UniProt (SwissProt) Alternative ID(s) of Target Chain>


> <UniProt (TrEMBL) Submitted Name of Target Chain>


> <UniProt (TrEMBL) Entry Name of Target Chain>


> <UniProt (TrEMBL) Primary ID of Target Chain>


> <UniProt (TrEMBL) Secondary ID(s) of Target Chain>


> <UniProt (TrEMBL) Alternative ID(s) of Target Chain>


> <training label>
8.09691

> <i_lp_mmshare_version>
54117

> <s_epik_input>
RmMxW2NIXVtjSF1jKFtjSF1jMUNsKVtOSF1jMm5bY0hdbmMoYzIzKVtjSF1jKE9bQ0gzXSljKFtjSF0zKU9bQ0gyXVtDSDJdW05IXVtDSDJdW0NIMl1PW0NIM10=

> <s_epik_cmdline>
J2VwaWtfcHl0aG9uJywgJy1waHQnLCAnMC4xJywgJy1waCcsICc3LjQnLCAnLXRuJywgJzgnLCAnLW1hJywgJzIwMCcsICctaW1hZScsICc8aW5maWxlLm1hZT4nLCAnLW9tYWUnLCAnPG91dGZpbGUubWFlPic=

> <r_lp_tautomer_probability>
0.999978000241998

> <r_epik_Ionization_Penalty>
  0.0345

> <r_epik_Ionization_Penalty_Charging>
  0.0342

> <r_epik_Ionization_Penalty_Neutral>
  0.0003

> <r_epik_State_Penalty>
  0.0284

> <r_epik_Charging_Adjusted_Penalty>
0.0625892337852752

> <i_epik_Tot_Q>
1

> <i_epik_Tot_abs_Q>
1

> <i_f3d_flags>
0

> <s_lp_Force_Field>
OPLS_2005

> <r_lp_Energy>
25.024801

> <b_lp_Chiralities_Consistent>
1

> <s_lp_Variant>
BindingDB_50102081_mol_1-1

> <s_i_glide_gridfile>
struct_1_site_1

> <i_i_glide_lignum>
241

> <i_i_glide_rotatable_bonds>
10

> <r_i_docking_score>
-6.99763874145773

> <r_i_glide_ligand_efficiency>
-0.241297887636473

> <r_i_glide_ligand_efficiency_sa>
-0.741343559355882

> <r_i_glide_ligand_efficiency_ln>
-1.60228182698569

> <r_i_glide_gscore>
-7.02603874145773

> <r_i_glide_lipo>
-2.93134639660149

> <r_i_glide_hbond>
-0.32

> <r_i_glide_metal>
0

> <r_i_glide_rewards>
-1.67797212027652

> <r_i_glide_evdw>
-42.7334861755371

> <r_i_glide_ecoul>
-5.22207736968994

> <r_i_glide_erotb>
0.890245992349389

> <r_i_glide_esite>
-0.0669803026987533

> <r_i_glide_emodel>
-54.9945408803088

> <r_i_glide_energy>
-47.9555635452271

> <r_i_glide_einternal>
6.54833316802979

> <i_i_glide_confnum>
46

> <i_i_glide_posenum>
124

> <r_i_glide_eff_state_penalty>
0.0284

> <IC50 (nM)>
8

> <PMID>
11459659

> <r_glide_shape_similarity>
0.814984977245331

> <s_m_subgroup_title>
505 training

> <s_m_subgroupid>
pocket_pv

> <b_m_subgroup_collapsed>
0

$$$$
BindingDB_50144606_mol_1
                    3D
 Schrodinger Suite 2021-2.
 44 47  0  0  1  0            999 V2000
   24.3719    0.6238   52.9856 N   0  0  0  0  0  0
   25.8300    0.6059   52.6515 C   0  0  1  0  0  0
   23.6679   -0.1458   53.8835 C   0  0  0  0  0  0
   22.3098   -0.0261   53.5033 C   0  0  0  0  0  0
   22.1569    0.9228   52.5206 N   0  0  0  0  0  0
   26.5926    1.8987   52.9264 C   0  0  2  0  0  0
   23.4182    1.2762   52.3033 C   0  0  0  0  0  0
   26.4767   -0.3904   53.3476 O   0  0  0  0  0  0
   27.8886    1.3971   53.5500 C   0  0  1  0  0  0
   27.8407   -0.0813   53.2057 C   0  0  1  0  0  0
   21.4365   -0.9088   54.1572 C   0  0  0  0  0  0
   24.1415   -0.9600   54.8571 N   0  0  0  0  0  0
   21.8853   -1.7269   55.1208 N   0  0  0  0  0  0
   19.7653   -1.1105   53.7754 S   0  0  0  0  0  0
   23.1747   -1.6721   55.4247 C   0  0  0  0  0  0
   25.9036    2.7376   53.7902 O   0  0  0  0  0  0
   29.0272    2.0035   52.9761 O   0  0  0  0  0  0
   19.3081   -0.1095   52.3469 C   0  0  0  0  0  0
   15.0061    0.1406   52.4558 C   0  0  0  0  0  0
   17.8007   -0.0954   52.2405 C   0  0  0  0  0  0
   28.7090   -0.9830   54.0349 C   0  0  0  0  0  0
   12.9694    0.3576   52.8029 I   0  0  0  0  0  0
   15.7561    1.1639   51.8577 C   0  0  0  0  0  0
   15.6318   -1.0378   52.8519 C   0  0  0  0  0  0
   17.1535    1.0474   51.7586 C   0  0  0  0  0  0
   17.0193   -1.1679   52.7241 C   0  0  0  0  0  0
   29.9067   -1.2789   53.3746 O   0  0  0  0  0  0
   25.8504    0.3575   51.5877 H   0  0  0  0  0  0
   26.7439    2.4105   51.9708 H   0  0  0  0  0  0
   23.6647    1.9693   51.5130 H   0  0  0  0  0  0
   27.8867    1.5395   54.6318 H   0  0  0  0  0  0
   28.0889   -0.2600   52.1730 H   0  0  0  0  0  0
   23.4972   -2.3534   56.1949 H   0  0  0  0  0  0
   26.2746    3.6120   53.7094 H   0  0  0  0  0  0
   29.8055    1.6443   53.3809 H   0  0  0  0  0  0
   19.6263    0.9181   52.5221 H   0  0  0  0  0  0
   19.7687   -0.4651   51.4256 H   0  0  0  0  0  0
   28.2088   -1.9358   54.1787 H   0  0  0  0  0  0
   28.9036   -0.4669   54.9755 H   0  0  0  0  0  0
   15.2730    2.0700   51.5291 H   0  0  0  0  0  0
   15.0536   -1.8315   53.2993 H   0  0  0  0  0  0
   17.7251    1.8800   51.3698 H   0  0  0  0  0  0
   17.4657   -2.0869   53.0634 H   0  0  0  0  0  0
   29.7027   -1.8164   52.6263 H   0  0  0  0  0  0
  1  2  1  0  0  0
  1  3  1  0  0  0
  1  7  1  0  0  0
  2  6  1  0  0  0
  2  8  1  0  0  0
  2 28  1  0  0  0
  3  4  2  0  0  0
  3 12  1  0  0  0
  4 11  1  0  0  0
  4  5  1  0  0  0
  5  7  2  0  0  0
  6  9  1  0  0  0
  6 16  1  0  0  0
  6 29  1  0  0  0
  7 30  1  0  0  0
  8 10  1  0  0  0
  9 17  1  0  0  0
  9 10  1  0  0  0
  9 31  1  0  0  0
 10 21  1  0  0  0
 10 32  1  0  0  0
 11 14  1  0  0  0
 11 13  2  0  0  0
 12 15  2  0  0  0
 13 15  1  0  0  0
 14 18  1  0  0  0
 15 33  1  0  0  0
 16 34  1  0  0  0
 17 35  1  0  0  0
 18 20  1  0  0  0
 18 36  1  0  0  0
 18 37  1  0  0  0
 19 24  2  0  0  0
 19 22  1  0  0  0
 19 23  1  0  0  0
 20 25  1  0  0  0
 20 26  2  0  0  0
 21 27  1  0  0  0
 21 38  1  0  0  0
 21 39  1  0  0  0
 23 25  2  0  0  0
 23 40  1  0  0  0
 24 26  1  0  0  0
 24 41  1  0  0  0
 25 42  1  0  0  0
 26 43  1  0  0  0
 27 44  1  0  0  0
M  END
> <s_m_entry_id>
379

> <s_m_entry_name>
pocket_pv.190

> <s_m_Source_Path>
/home/bortolaa/Project/GT/mario-master/docking/set505protein_struct_1_site_1_set505ligs_train

> <s_m_Source_File>
pocket_pv.maegz

> <i_m_Source_File_Index>
190

> <From>
www.bindingDB.org

> <BindingDB Reactant_set_id>
50463846

> <Ligand InChI>
InChI=1S/C29H23ClN4O3/c1-36-26-15-23-25(16-27(26)37-17-19-7-3-2-4-8-19)31-18-32-28(23)33-20-11-13-21(14-12-20)34-29(35)22-9-5-6-10-24(22)30/h2-16,18H,17H2,1H3,(H,34,35)(H,31,32,33)

> <Ligand InChI Key>
JASSTMZJDQXQFP-UHFFFAOYSA-N

> <BindingDB MonomerID>
50144606

> <BindingDB Ligand Name>
CHEMBL3759203

> <Target Name Assigned by Curator or DataSource>
Epidermal growth factor receptor

> <Target Source Organism According to Curator or DataSource>
Homo sapiens

> <Ki (nM)>


> <IC50 (nM)>
730

> <Kd (nM)>


> <EC50 (nM)>


> <kon (M-1-s-1)>


> <koff (s-1)>


> <pH>


> <Temp C>


> <Curation/DataSource>
ChEMBL

> <Article DOI>
10.1016/j.ejmech.2015.12.032

> <PubChem AID>


> <Patent Number>


> <Authors>
Zhang, HQ; Gong, FH; Li, CG; Zhang, C; Wang, YJ; Xu, YG; Sun, LP

> <Institution>
China Pharmaceutical University

> <Link to Ligand in BindingDB>
http://www.bindingdb.org/bind/chemsearch/marvin/MolStructure.jsp?monomerid=50144606

> <Link to Ligand-Target Pair in BindingDB>
http://www.bindingdb.org/jsp/dbsearch/PrimarySearch_ki.jsp?energyterm=kJ/mole&tag=r21&monomerid=50144606&enzyme=Epidermal+growth+factor+receptor&column=ki&startPg=0&Increment=50&submit=Search

> <Ligand HET ID in PDB>


> <PDB ID(s) for Ligand-Target Complex>


> <PubChem CID>
44312149

> <PubChem SID>
104033684

> <ChEBI ID of Ligand>


> <ChEMBL ID of Ligand>
CHEMBL3759203

> <DrugBank ID of Ligand>


> <IUPHAR_GRAC ID of Ligand>


> <KEGG ID of Ligand>


> <ZINC ID of Ligand>
ZINC36332177

> <Number of Protein Chains in Target (>
1

> <BindingDB Target Chain Sequence>
MRPSGTAGAALLALLAALCPASRALEEKKVCQGTSNKLTQLGTFEDHFLSLQRMFNNCEVVLGNLEITYVQRNYDLSFLKTIQEVAGYVLIALNTVERIPLENLQIIRGNMYYENSYALAVLSNYDANKTGLKELPMRNLQEILHGAVRFSNNPALCNVESIQWRDIVSSDFLSNMSMDFQNHLGSCQKCDPSCPNGSCWGAGEENCQKLTKIICAQQCSGRCRGKSPSDCCHNQCAAGCTGPRESDCLVCRKFRDEATCKDTCPPLMLYNPTTYQMDVNPEGKYSFGATCVKKCPRNYVVTDHGSCVRACGADSYEMEEDGVRKCKKCEGPCRKVCNGIGIGEFKDSLSINATNIKHFKNCTSISGDLHILPVAFRGDSFTHTPPLDPQELDILKTVKEITGFLLIQAWPENRTDLHAFENLEIIRGRTKQHGQFSLAVVSLNITSLGLRSLKEISDGDVIISGNKNLCYANTINWKKLFGTSGQKTKIISNRGENSCKATGQVCHALCSPEGCWGPEPRDCVSCRNVSRGRECVDKCNLLEGEPREFVENSECIQCHPECLPQAMNITCTGRGPDNCIQCAHYIDGPHCVKTCPAGVMGENNTLVWKYADAGHVCHLCHPNCTYGCTGPGLEGCPTNGPKIPSIATGMVGALLLLLVVALGIGLFMRRRHIVRKRTLRRLLQERELVEPLTPSGEAPNQALLRILKETEFKKIKVLGSGAFGTVYKGLWIPEGEKVKIPVAIKELREATSPKANKEILDEAYVMASVDNPHVCRLLGICLTSTVQLITQLMPFGCLLDYVREHKDNIGSQYLLNWCVQIAKGMNYLEDRRLVHRDLAARNVLVKTPQHVKITDFGLAKLLGAEEKEYHAEGGKVPIKWMALESILHRIYTHQSDVWSYGVTVWELMTFGSKPYDGIPASEISSILEKGERLPQPPICTIDVYMIMVKCWMIDADSRPKFRELIIEFSKMARDPQRYLVIQGDERMHLPSPTDSNFYRALMDEEDMDDVVDADEYLIPQQGFFSSPSTSRTPLLSSLSATSNNSTVACIDRNGLQSCPIKEDSFLQRYSSDPTGALTEDSIDDTFLPVPEYINQSVPKRPAGSVQNPVYHNQPLNPAPSRDPHYQDPHSTAVGNPEYLNTVQPTCVNSTFDSPAHWAQKGSHQISLDNPDYQQDFFPKEAKPNGIFKGSTAENAEYLRVAPQSSEFIGA

> <PDB ID(s) of Target Chain>
1IVO,1M14,1M17,1MOX,1XKK,1Z9I,2GS2,2GS6,2ITW,2ITX,2ITY,2J5E,2J5F,2J6M,2RF9,2RGP,3B2V,3BEL,3GOP,3POZ,3QWQ,3VJO,3W2O,3W2P,3W2Q,3W2R,3W2S,3W32,3W33,4G5J,4I23,4JQ7,4JQ8,4JR3,4JRV,4KRO,4LI5,4RJ4,4RJ5,4RJ6,4RJ7,4RJ8,4TKS,4UIP,4UV7,4WKQ,4WRG,4ZAU,5C8K,5C8M,5C8N,5CAL,5CAN,5CAO,5CAP,5CAQ,5CAS,5CAU,5CAV,5EDP,5EDQ,5EDR,5EM5,5EM6,5EM7,5EM8,5FED,5GNK,5HCX,5HCY,5HCZ,5HIB,5HIC,5UGB,5WB7,5WB8,5Y25,6S89,6S8A

> <UniProt (SwissProt) Recommended Name of Target Chain>
Epidermal growth factor receptor

> <UniProt (SwissProt) Entry Name of Target Chain>
EGFR_HUMAN

> <UniProt (SwissProt) Primary ID of Target Chain>
P00533

> <UniProt (SwissProt) Secondary ID(s) of Target Chain>
O00688,O00732,P06268,Q14225,Q68GS5,Q92795,Q9BZS2,Q9GZX1,Q9H2C9,Q9H3C9,Q9UMD7,Q9UMD8,Q9UMG5

> <UniProt (SwissProt) Alternative ID(s) of Target Chain>


> <UniProt (TrEMBL) Submitted Name of Target Chain>


> <UniProt (TrEMBL) Entry Name of Target Chain>


> <UniProt (TrEMBL) Primary ID of Target Chain>


> <UniProt (TrEMBL) Secondary ID(s) of Target Chain>


> <UniProt (TrEMBL) Alternative ID(s) of Target Chain>


> <training label>
6.13668

> <i_lp_mmshare_version>
54117

> <s_epik_input>
W09IXVtDSDJdW0NAQEhdKE8xKVtDQEBIXShbT0hdKVtDQEhdKFtPSF0pW0NAQEhdMW4yW2NIXW5jKGMyMyljKG5bY0hdbjMpU1tDSDJdYyhbY0hdW2NIXTQpW2NIXVtjSF1jNEk=

> <s_epik_cmdline>
J2VwaWtfcHl0aG9uJywgJy1waHQnLCAnMC4xJywgJy1waCcsICc3LjQnLCAnLXRuJywgJzgnLCAnLW1hJywgJzIwMCcsICctaW1hZScsICc8aW5maWxlLm1hZT4nLCAnLW9tYWUnLCAnPG91dGZpbGUubWFlPic=

> <r_lp_tautomer_probability>
1

> <r_epik_Ionization_Penalty>
  0.0001

> <r_epik_Ionization_Penalty_Charging>
  0.0000

> <r_epik_Ionization_Penalty_Neutral>
  0.0001

> <r_epik_State_Penalty>
  0.0000

> <r_epik_Charging_Adjusted_Penalty>
0

> <i_epik_Tot_Q>
0

> <i_epik_Tot_abs_Q>
0

> <i_f3d_flags>
0

> <s_lp_Force_Field>
OPLS_2005

> <r_lp_Energy>
37.963497

> <b_lp_Chiralities_Consistent>
1

> <s_lp_Variant>
BindingDB_50144606_mol_1-10

> <s_i_glide_gridfile>
struct_1_site_1

> <i_i_glide_lignum>
89

> <i_i_glide_rotatable_bonds>
8

> <r_i_docking_score>
-6.99567299403217

> <r_i_glide_ligand_efficiency>
-0.259098999778969

> <r_i_glide_ligand_efficiency_sa>
-0.77729699848296

> <r_i_glide_ligand_efficiency_ln>
-1.62847734032764

> <r_i_glide_gscore>
-6.99567299403217

> <r_i_glide_lipo>
-2.01792365561526

> <r_i_glide_hbond>
-0.255945526464775

> <r_i_glide_metal>
0

> <r_i_glide_rewards>
-2.09389576947282

> <r_i_glide_evdw>
-40.7341804504395

> <r_i_glide_ecoul>
-6.66043996810913

> <r_i_glide_erotb>
0.407866975259027

> <r_i_glide_esite>
0

> <r_i_glide_emodel>
-42.0522307905807

> <r_i_glide_energy>
-47.3946204185486

> <r_i_glide_einternal>
6.68733263015747

> <i_i_glide_confnum>
26

> <i_i_glide_posenum>
167

> <r_i_glide_eff_state_penalty>
0

> <PMID>
26826581

> <s_epik_Chemistry_Notes>
This compound contains an acetal/aminal-like group ( X-CH(R)-Y where X, Y are N, S, or O) that may be acid/base labile, releasing an aldehyde.

> <r_glide_shape_similarity>
0.78043931722641

> <s_m_subgroup_title>
505 training

> <s_m_subgroupid>
pocket_pv

> <b_m_subgroup_collapsed>
0

$$$$
BindingDB_50292729_mol_1
                    3D
 Schrodinger Suite 2021-2.
 48 51  0  0  1  0            999 V2000
   21.8101   -1.8975   55.1421 N   0  0  0  0  0  0
   23.0996   -1.7364   55.4109 C   0  0  0  0  0  0
   23.9398   -0.8968   54.8236 N   0  0  0  0  0  0
   23.4387   -0.0974   53.8675 C   0  0  0  0  0  0
   21.2806   -1.1172   54.1855 C   0  0  0  0  0  0
   22.0765   -0.1695   53.5062 C   0  0  0  0  0  0
   21.5099    0.6445   52.5067 C   0  0  0  0  0  0
   19.9253   -1.2251   53.8515 C   0  0  0  0  0  0
   24.2887    0.8476   53.2764 N   0  0  0  0  0  0
   25.6832    0.9477   53.3429 C   0  0  0  0  0  0
   26.5140   -0.1886   53.3340 C   0  0  0  0  0  0
   27.9096   -0.0519   53.3834 C   0  0  0  0  0  0
   28.4910    1.2220   53.4378 C   0  0  0  0  0  0
   27.6695    2.3577   53.4234 C   0  0  0  0  0  0
   26.2733    2.2232   53.3697 C   0  0  0  0  0  0
   29.1112   -1.7527   53.3744 I   0  0  0  0  0  0
   19.3598   -0.4215   52.8626 C   0  0  0  0  0  0
   20.1588    0.5042   52.1662 C   0  0  0  0  0  0
   19.6360    1.2782   51.1690 O   0  0  0  0  0  0
   18.3390    0.8941   50.7049 C   0  0  1  0  0  0
   17.4580    0.5405   51.9314 C   0  0  2  0  0  0
   18.0300   -0.5662   52.5984 O   0  0  0  0  0  0
   17.8202    2.1064   49.8991 C   0  0  0  0  0  0
   18.8539    2.8669   49.2895 O   0  0  0  0  0  0
   19.5471    2.2048   48.2566 C   0  0  0  0  0  0
   15.9962    0.1486   51.6973 C   0  0  0  0  0  0
   15.3889    0.1408   52.9788 O   0  0  0  0  0  0
   14.0176   -0.1891   52.9705 C   0  0  0  0  0  0
   23.5144   -2.3764   56.1749 H   0  0  0  0  0  0
   22.1020    1.3658   51.9639 H   0  0  0  0  0  0
   19.3012   -1.9292   54.3813 H   0  0  0  0  0  0
   23.8217    1.6207   52.8343 H   0  0  0  0  0  0
   26.0867   -1.1793   53.2840 H   0  0  0  0  0  0
   29.5663    1.3309   53.4793 H   0  0  0  0  0  0
   28.1085    3.3448   53.4545 H   0  0  0  0  0  0
   25.6623    3.1155   53.3608 H   0  0  0  0  0  0
   18.4161    0.0171   50.0590 H   0  0  0  0  0  0
   17.4713    1.4158   52.5744 H   0  0  0  0  0  0
   17.0663    1.8024   49.1719 H   0  0  0  0  0  0
   17.3188    2.7955   50.5796 H   0  0  0  0  0  0
   20.3032    2.8739   47.8463 H   0  0  0  0  0  0
   20.0588    1.3062   48.6040 H   0  0  0  0  0  0
   18.8734    1.9339   47.4446 H   0  0  0  0  0  0
   15.9196   -0.8260   51.2126 H   0  0  0  0  0  0
   15.4972    0.8842   51.0659 H   0  0  0  0  0  0
   13.6433   -0.2091   53.9951 H   0  0  0  0  0  0
   13.8523   -1.1772   52.5343 H   0  0  0  0  0  0
   13.4399    0.5492   52.4105 H   0  0  0  0  0  0
  1  2  1  0  0  0
  1  5  2  0  0  0
  2  3  2  0  0  0
  2 29  1  0  0  0
  3  4  1  0  0  0
  4  6  2  0  0  0
  4  9  1  0  0  0
  5  6  1  0  0  0
  5  8  1  0  0  0
  6  7  1  0  0  0
  7 18  2  0  0  0
  7 30  1  0  0  0
  8 17  2  0  0  0
  8 31  1  0  0  0
  9 10  1  0  0  0
  9 32  1  0  0  0
 10 11  1  0  0  0
 10 15  2  0  0  0
 11 12  2  0  0  0
 11 33  1  0  0  0
 12 13  1  0  0  0
 12 16  1  0  0  0
 13 14  2  0  0  0
 13 34  1  0  0  0
 14 15  1  0  0  0
 14 35  1  0  0  0
 15 36  1  0  0  0
 17 18  1  0  0  0
 17 22  1  0  0  0
 18 19  1  0  0  0
 19 20  1  0  0  0
 20 21  1  0  0  0
 20 23  1  0  0  0
 20 37  1  0  0  0
 21 22  1  0  0  0
 21 26  1  0  0  0
 21 38  1  0  0  0
 23 24  1  0  0  0
 23 39  1  0  0  0
 23 40  1  0  0  0
 24 25  1  0  0  0
 25 41  1  0  0  0
 25 42  1  0  0  0
 25 43  1  0  0  0
 26 27  1  0  0  0
 26 44  1  0  0  0
 26 45  1  0  0  0
 27 28  1  0  0  0
 28 46  1  0  0  0
 28 47  1  0  0  0
 28 48  1  0  0  0
M  END
> <s_m_entry_id>
380

> <s_m_entry_name>
pocket_pv.191

> <s_m_Source_Path>
/home/bortolaa/Project/GT/mario-master/docking/set505protein_struct_1_site_1_set505ligs_train

> <s_m_Source_File>
pocket_pv.maegz

> <i_m_Source_File_Index>
191

> <From>
www.bindingDB.org

> <BindingDB Reactant_set_id>
50505064

> <Ligand InChI>
InChI=1S/C20H20IN3O4/c1-25-9-18-19(10-26-2)28-17-8-15-14(7-16(17)27-18)20(23-11-22-15)24-13-5-3-4-12(21)6-13/h3-8,11,18-19H,9-10H2,1-2H3,(H,22,23,24)/t18-,19-/m1/s1

> <Ligand InChI Key>
TVSKFMAUUMEPPY-RTBURBONSA-N

> <BindingDB MonomerID>
50292729

> <BindingDB Ligand Name>
(7R,8R)-N-(3-iodophenyl)-7,8-bis(methoxymethyl)-7,8-dihydro-[1,4]dioxino[2,3-g]quinazolin-4-amine::CHEMBL516979

> <Target Name Assigned by Curator or DataSource>
Epidermal growth factor receptor

> <Target Source Organism According to Curator or DataSource>
Homo sapiens

> <Ki (nM)>


> <Kd (nM)>


> <EC50 (nM)>


> <kon (M-1-s-1)>


> <koff (s-1)>


> <pH>


> <Temp C>


> <Curation/DataSource>
ChEMBL

> <Article DOI>
10.1021/jm800829v

> <PubChem AID>


> <Patent Number>


> <Authors>
La Motta, C; Sartini, S; Tuccinardi, T; Nerini, E; Da Settimo, F; Martinelli, A

> <Institution>
Universit&#163; di Pisa

> <Link to Ligand in BindingDB>
http://www.bindingdb.org/bind/chemsearch/marvin/MolStructure.jsp?monomerid=50292729

> <Link to Ligand-Target Pair in BindingDB>
http://www.bindingdb.org/jsp/dbsearch/PrimarySearch_ki.jsp?energyterm=kJ/mole&tag=r21&monomerid=50292729&enzyme=Epidermal+growth+factor+receptor&column=ki&startPg=0&Increment=50&submit=Search

> <Ligand HET ID in PDB>


> <PDB ID(s) for Ligand-Target Complex>


> <PubChem CID>
11712931

> <PubChem SID>
104134280

> <ChEBI ID of Ligand>


> <ChEMBL ID of Ligand>
CHEMBL516979

> <DrugBank ID of Ligand>


> <IUPHAR_GRAC ID of Ligand>


> <KEGG ID of Ligand>


> <ZINC ID of Ligand>
ZINC34637954

> <Number of Protein Chains in Target (>
1

> <BindingDB Target Chain Sequence>
MRPSGTAGAALLALLAALCPASRALEEKKVCQGTSNKLTQLGTFEDHFLSLQRMFNNCEVVLGNLEITYVQRNYDLSFLKTIQEVAGYVLIALNTVERIPLENLQIIRGNMYYENSYALAVLSNYDANKTGLKELPMRNLQEILHGAVRFSNNPALCNVESIQWRDIVSSDFLSNMSMDFQNHLGSCQKCDPSCPNGSCWGAGEENCQKLTKIICAQQCSGRCRGKSPSDCCHNQCAAGCTGPRESDCLVCRKFRDEATCKDTCPPLMLYNPTTYQMDVNPEGKYSFGATCVKKCPRNYVVTDHGSCVRACGADSYEMEEDGVRKCKKCEGPCRKVCNGIGIGEFKDSLSINATNIKHFKNCTSISGDLHILPVAFRGDSFTHTPPLDPQELDILKTVKEITGFLLIQAWPENRTDLHAFENLEIIRGRTKQHGQFSLAVVSLNITSLGLRSLKEISDGDVIISGNKNLCYANTINWKKLFGTSGQKTKIISNRGENSCKATGQVCHALCSPEGCWGPEPRDCVSCRNVSRGRECVDKCNLLEGEPREFVENSECIQCHPECLPQAMNITCTGRGPDNCIQCAHYIDGPHCVKTCPAGVMGENNTLVWKYADAGHVCHLCHPNCTYGCTGPGLEGCPTNGPKIPSIATGMVGALLLLLVVALGIGLFMRRRHIVRKRTLRRLLQERELVEPLTPSGEAPNQALLRILKETEFKKIKVLGSGAFGTVYKGLWIPEGEKVKIPVAIKELREATSPKANKEILDEAYVMASVDNPHVCRLLGICLTSTVQLITQLMPFGCLLDYVREHKDNIGSQYLLNWCVQIAKGMNYLEDRRLVHRDLAARNVLVKTPQHVKITDFGLAKLLGAEEKEYHAEGGKVPIKWMALESILHRIYTHQSDVWSYGVTVWELMTFGSKPYDGIPASEISSILEKGERLPQPPICTIDVYMIMVKCWMIDADSRPKFRELIIEFSKMARDPQRYLVIQGDERMHLPSPTDSNFYRALMDEEDMDDVVDADEYLIPQQGFFSSPSTSRTPLLSSLSATSNNSTVACIDRNGLQSCPIKEDSFLQRYSSDPTGALTEDSIDDTFLPVPEYINQSVPKRPAGSVQNPVYHNQPLNPAPSRDPHYQDPHSTAVGNPEYLNTVQPTCVNSTFDSPAHWAQKGSHQISLDNPDYQQDFFPKEAKPNGIFKGSTAENAEYLRVAPQSSEFIGA

> <PDB ID(s) of Target Chain>
1IVO,1M14,1M17,1MOX,1XKK,1Z9I,2GS2,2GS6,2ITW,2ITX,2ITY,2J5E,2J5F,2J6M,2RF9,2RGP,3B2V,3BEL,3GOP,3POZ,3QWQ,3VJO,3W2O,3W2P,3W2Q,3W2R,3W2S,3W32,3W33,4G5J,4I23,4JQ7,4JQ8,4JR3,4JRV,4KRO,4LI5,4RJ4,4RJ5,4RJ6,4RJ7,4RJ8,4TKS,4UIP,4UV7,4WKQ,4WRG,4ZAU,5C8K,5C8M,5C8N,5CAL,5CAN,5CAO,5CAP,5CAQ,5CAS,5CAU,5CAV,5EDP,5EDQ,5EDR,5EM5,5EM6,5EM7,5EM8,5FED,5GNK,5HCX,5HCY,5HCZ,5HIB,5HIC,5UGB,5WB7,5WB8,5Y25,6S89,6S8A

> <UniProt (SwissProt) Recommended Name of Target Chain>
Epidermal growth factor receptor

> <UniProt (SwissProt) Entry Name of Target Chain>
EGFR_HUMAN

> <UniProt (SwissProt) Primary ID of Target Chain>
P00533

> <UniProt (SwissProt) Secondary ID(s) of Target Chain>
O00688,O00732,P06268,Q14225,Q68GS5,Q92795,Q9BZS2,Q9GZX1,Q9H2C9,Q9H3C9,Q9UMD7,Q9UMD8,Q9UMG5

> <UniProt (SwissProt) Alternative ID(s) of Target Chain>


> <UniProt (TrEMBL) Submitted Name of Target Chain>


> <UniProt (TrEMBL) Entry Name of Target Chain>


> <UniProt (TrEMBL) Primary ID of Target Chain>


> <UniProt (TrEMBL) Secondary ID(s) of Target Chain>


> <UniProt (TrEMBL) Alternative ID(s) of Target Chain>


> <training label>
8.77989

> <i_lp_mmshare_version>
54117

> <s_epik_input>
W2NIXTFbY0hdW2NIXWMoSSlbY0hdYzFbTkhdYyhuW2NIXW4yKWMoYzIzKVtjSF1jNGMoW2NIXTMpT1tDQEhdKFtDSDJdT1tDSDNdKVtDQEhdKE80KVtDSDJdT1tDSDNd

> <s_epik_cmdline>
J2VwaWtfcHl0aG9uJywgJy1waHQnLCAnMC4xJywgJy1waCcsICc3LjQnLCAnLXRuJywgJzgnLCAnLW1hJywgJzIwMCcsICctaW1hZScsICc8aW5maWxlLm1hZT4nLCAnLW9tYWUnLCAnPG91dGZpbGUubWFlPic=

> <r_lp_tautomer_probability>
1

> <r_epik_Ionization_Penalty>
  0.0010

> <r_epik_Ionization_Penalty_Charging>
  0.0000

> <r_epik_Ionization_Penalty_Neutral>
  0.0010

> <r_epik_State_Penalty>
  0.0000

> <r_epik_Charging_Adjusted_Penalty>
0

> <i_epik_Tot_Q>
0

> <i_epik_Tot_abs_Q>
0

> <i_f3d_flags>
0

> <s_lp_Force_Field>
OPLS_2005

> <r_lp_Energy>
18.657284

> <b_lp_Chiralities_Consistent>
1

> <s_lp_Variant>
BindingDB_50292729_mol_1-1

> <s_i_glide_gridfile>
struct_1_site_1

> <i_i_glide_lignum>
275

> <i_i_glide_rotatable_bonds>
6

> <r_i_docking_score>
-6.97856682717014

> <r_i_glide_ligand_efficiency>
-0.249234529541791

> <r_i_glide_ligand_efficiency_sa>
-0.756822822976591

> <r_i_glide_ligand_efficiency_ln>
-1.61085812333636

> <r_i_glide_gscore>
-6.97856682717014

> <r_i_glide_lipo>
-2.8995510612571

> <r_i_glide_hbond>
-0.32

> <r_i_glide_metal>
0

> <r_i_glide_rewards>
-1.2053202973598

> <r_i_glide_evdw>
-42.6474533081055

> <r_i_glide_ecoul>
-5.04114389419556

> <r_i_glide_erotb>
0.334848780981367

> <r_i_glide_esite>
0

> <r_i_glide_emodel>
-61.8424421440442

> <r_i_glide_energy>
-47.688597202301

> <r_i_glide_einternal>
3.92788338661194

> <i_i_glide_confnum>
45

> <i_i_glide_posenum>
99

> <r_i_glide_eff_state_penalty>
0

> <IC50 (nM)>
1.66

> <PMID>
19170633

> <r_glide_shape_similarity>
0.934947490692139

> <s_m_subgroup_title>
505 training

> <s_m_subgroupid>
pocket_pv

> <b_m_subgroup_collapsed>
0

$$$$
/home/bortolaa/Project/GT/mario-master/ligands/set505ligs_train.sdf:9
                    3D
 Schrodinger Suite 2021-2.
 76 79  0  0  1  0            999 V2000
   23.8086   -0.0518   53.7878 C   0  0  0  0  0  0
   25.1042    0.4892   53.5773 C   0  0  0  0  0  0
   26.1359    0.0216   54.4260 C   0  0  0  0  0  0
   25.8724   -0.8662   55.4028 N   0  0  0  0  0  0
   24.6216   -1.3167   55.5129 C   0  0  0  0  0  0
   23.5906   -0.9683   54.7510 N   0  0  0  0  0  0
   27.4301    0.5466   54.2974 C   0  0  0  0  0  0
   27.6935    1.6280   53.4278 C   0  0  0  0  0  0
   26.6739    2.0763   52.5583 C   0  0  0  0  0  0
   25.3930    1.4756   52.6123 C   0  0  0  0  0  0
   26.9768    3.1333   51.7230 O   0  0  0  0  0  0
   26.3514    3.2600   50.4437 C   0  0  0  0  0  0
   28.9007    2.2950   53.4113 O   0  0  0  0  0  0
   29.8160    2.0173   54.4722 C   0  0  0  0  0  0
   22.7320    0.4094   53.0189 N   0  0  0  0  0  0
   21.3795    0.0473   52.9930 C   0  0  0  0  0  0
   20.6006    0.6541   51.9830 C   0  0  0  0  0  0
   19.2282    0.3737   51.8607 C   0  0  0  0  0  0
   18.6184   -0.5200   52.7734 C   0  0  0  0  0  0
   19.3968   -1.1403   53.7722 C   0  0  0  0  0  0
   20.7643   -0.8596   53.8902 C   0  0  0  0  0  0
   17.2349   -0.8282   52.7856 N   0  0  0  0  0  0
   16.2192   -0.1128   52.2775 C   0  0  0  0  0  0
   15.0973   -0.3343   52.9752 N   0  0  0  0  0  0
   16.2899    0.6358   51.3069 O   0  0  0  0  0  0
   13.8016    0.2814   52.7332 C   0  0  0  0  0  0
   12.7318   -0.5056   53.5231 C   0  0  0  0  0  0
   11.3369    0.1422   53.4125 C   0  0  0  0  0  0
   11.3665    1.6225   53.8509 C   0  0  0  0  0  0
   12.4193    2.4200   53.0516 C   0  0  0  0  0  0
   13.8188    1.7748   53.1476 C   0  0  0  0  0  0
   25.0140    4.0503   50.4171 C   0  0  0  0  0  0
   25.0860    5.4407   50.9745 N   0  3  0  0  0  0
   25.6802    6.3804   49.9687 C   0  0  0  0  0  0
   23.7598    5.9135   51.4981 C   0  0  0  0  0  0
   23.2388    5.1350   52.7339 C   0  0  0  0  0  0
   26.0619    7.7641   50.5257 C   0  0  0  0  0  0
   24.4333   -2.0604   56.2731 H   0  0  0  0  0  0
   28.1876    0.1559   54.9586 H   0  0  0  0  0  0
   24.6100    1.7986   51.9570 H   0  0  0  0  0  0
   27.0775    3.7499   49.7976 H   0  0  0  0  0  0
   26.2141    2.2724   50.0049 H   0  0  0  0  0  0
   30.5854    2.7866   54.5721 H   0  0  0  0  0  0
   29.3257    1.9814   55.4419 H   0  0  0  0  0  0
   30.3019    1.0577   54.2921 H   0  0  0  0  0  0
   22.9795    1.1181   52.3473 H   0  0  0  0  0  0
   21.0509    1.3443   51.2847 H   0  0  0  0  0  0
   18.6715    0.8587   51.0756 H   0  0  0  0  0  0
   18.9408   -1.8203   54.4780 H   0  0  0  0  0  0
   21.2774   -1.3552   54.6942 H   0  0  0  0  0  0
   16.9700   -1.5055   53.4844 H   0  0  0  0  0  0
   15.1366   -0.9352   53.7882 H   0  0  0  0  0  0
   13.5720    0.2139   51.6688 H   0  0  0  0  0  0
   13.0154   -0.5581   54.5751 H   0  0  0  0  0  0
   12.6883   -1.5347   53.1666 H   0  0  0  0  0  0
   10.6210   -0.4100   54.0213 H   0  0  0  0  0  0
   10.9856    0.0756   52.3823 H   0  0  0  0  0  0
   11.5943    1.6845   54.9151 H   0  0  0  0  0  0
   10.3822    2.0718   53.7218 H   0  0  0  0  0  0
   12.4587    3.4478   53.4140 H   0  0  0  0  0  0
   12.1130    2.4831   52.0067 H   0  0  0  0  0  0
   14.5226    2.3399   52.5340 H   0  0  0  0  0  0
   14.1732    1.8595   54.1724 H   0  0  0  0  0  0
   24.6657    4.1056   49.3846 H   0  0  0  0  0  0
   24.2379    3.4846   50.9137 H   0  0  0  0  0  0
   26.5899    5.9384   49.5652 H   0  0  0  0  0  0
   24.9965    6.4992   49.1276 H   0  0  0  0  0  0
   23.8403    6.9550   51.8059 H   0  0  0  0  0  0
   23.0184    5.8862   50.6975 H   0  0  0  0  0  0
   22.3062    5.5809   53.0955 H   0  0  0  0  0  0
   23.0043    4.0906   52.5206 H   0  0  0  0  0  0
   23.9625    5.1602   53.5528 H   0  0  0  0  0  0
   26.5876    8.3477   49.7701 H   0  0  0  0  0  0
   25.1990    8.3491   50.8424 H   0  0  0  0  0  0
   26.7290    7.6532   51.3742 H   0  0  0  0  0  0
   25.7164    5.4376   51.7943 H   0  0  0  0  0  0
  1  2  2  0  0  0
  1  6  1  0  0  0
  1 15  1  0  0  0
  2 10  1  0  0  0
  2  3  1  0  0  0
  3  4  2  0  0  0
  3  7  1  0  0  0
  4  5  1  0  0  0
  5  6  2  0  0  0
  5 38  1  0  0  0
  7  8  2  0  0  0
  7 39  1  0  0  0
  8  9  1  0  0  0
  8 13  1  0  0  0
  9 10  2  0  0  0
  9 11  1  0  0  0
 10 40  1  0  0  0
 11 12  1  0  0  0
 12 32  1  0  0  0
 12 41  1  0  0  0
 12 42  1  0  0  0
 13 14  1  0  0  0
 14 43  1  0  0  0
 14 44  1  0  0  0
 14 45  1  0  0  0
 15 16  1  0  0  0
 15 46  1  0  0  0
 16 17  2  0  0  0
 16 21  1  0  0  0
 17 18  1  0  0  0
 17 47  1  0  0  0
 18 19  2  0  0  0
 18 48  1  0  0  0
 19 20  1  0  0  0
 19 22  1  0  0  0
 20 21  2  0  0  0
 20 49  1  0  0  0
 21 50  1  0  0  0
 22 23  1  0  0  0
 22 51  1  0  0  0
 23 24  1  0  0  0
 23 25  2  0  0  0
 24 26  1  0  0  0
 24 52  1  0  0  0
 26 27  1  0  0  0
 26 31  1  0  0  0
 26 53  1  0  0  0
 27 28  1  0  0  0
 27 54  1  0  0  0
 27 55  1  0  0  0
 28 29  1  0  0  0
 28 56  1  0  0  0
 28 57  1  0  0  0
 29 30  1  0  0  0
 29 58  1  0  0  0
 29 59  1  0  0  0
 30 31  1  0  0  0
 30 60  1  0  0  0
 30 61  1  0  0  0
 31 62  1  0  0  0
 31 63  1  0  0  0
 32 33  1  0  0  0
 32 64  1  0  0  0
 32 65  1  0  0  0
 33 34  1  0  0  0
 33 35  1  0  0  0
 33 76  1  0  0  0
 34 37  1  0  0  0
 34 66  1  0  0  0
 34 67  1  0  0  0
 35 36  1  0  0  0
 35 68  1  0  0  0
 35 69  1  0  0  0
 36 70  1  0  0  0
 36 71  1  0  0  0
 36 72  1  0  0  0
 37 73  1  0  0  0
 37 74  1  0  0  0
 37 75  1  0  0  0
M  CHG  1  33   1
M  END
> <s_m_entry_id>
381

> <s_m_entry_name>
pocket_pv.192

> <s_m_Source_Path>
/home/bortolaa/Project/GT/mario-master/docking/set505protein_struct_1_site_1_set505ligs_train

> <s_m_Source_File>
pocket_pv.maegz

> <i_m_Source_File_Index>
192

> <From>
www.bindingDB.org

> <BindingDB Reactant_set_id>
406604

> <Ligand InChI>
InChI=1S/C28H38N6O3/c1-4-34(5-2)15-16-37-26-17-23-24(18-25(26)36-3)29-19-30-27(23)31-21-11-13-22(14-12-21)33-28(35)32-20-9-7-6-8-10-20/h11-14,17-20H,4-10,15-16H2,1-3H3,(H,29,30,31)(H2,32,33,35)

> <Ligand InChI Key>
LXOCUJRACFRTGF-UHFFFAOYSA-N

> <BindingDB MonomerID>
233114

> <BindingDB Ligand Name>
N-Cyclohexyl-N&#39;-{4-[6-(2-diethylaminoethoxy)-7-methoxy-quinazolin-4-ylamino]phenyl}urea hydrochloride (19j)

> <Target Name Assigned by Curator or DataSource>
Epidermal growth factor receptor

> <Target Source Organism According to Curator or DataSource>
Homo sapiens

> <Ki (nM)>


> <IC50 (nM)>
32300

> <Kd (nM)>


> <EC50 (nM)>


> <kon (M-1-s-1)>


> <koff (s-1)>


> <Temp C>


> <Curation/DataSource>
Curated from the literature by BindingDB

> <Article DOI>
10.3109/14756360903169485

> <PubChem AID>


> <Patent Number>


> <Authors>
Garofalo, A; Goossens, L; Lemoine, A; Farce, A; Arlot, Y; Depreux, P

> <Institution>
Université Lille Nord de France

> <Link to Ligand in BindingDB>
http://www.bindingdb.org/bind/chemsearch/marvin/MolStructure.jsp?monomerid=233114

> <Link to Ligand-Target Pair in BindingDB>
http://www.bindingdb.org/jsp/dbsearch/PrimarySearch_ki.jsp?energyterm=kJ/mole&tag=r21&monomerid=233114&enzyme=Epidermal+growth+factor+receptor&column=ki&startPg=0&Increment=50&submit=Search

> <Ligand HET ID in PDB>


> <PDB ID(s) for Ligand-Target Complex>


> <PubChem CID>
129010612

> <PubChem SID>
340093208

> <ChEBI ID of Ligand>


> <ChEMBL ID of Ligand>


> <DrugBank ID of Ligand>


> <IUPHAR_GRAC ID of Ligand>


> <KEGG ID of Ligand>


> <ZINC ID of Ligand>


> <Number of Protein Chains in Target (>
1

> <BindingDB Target Chain Sequence>
MRPSGTAGAALLALLAALCPASRALEEKKVCQGTSNKLTQLGTFEDHFLSLQRMFNNCEVVLGNLEITYVQRNYDLSFLKTIQEVAGYVLIALNTVERIPLENLQIIRGNMYYENSYALAVLSNYDANKTGLKELPMRNLQEILHGAVRFSNNPALCNVESIQWRDIVSSDFLSNMSMDFQNHLGSCQKCDPSCPNGSCWGAGEENCQKLTKIICAQQCSGRCRGKSPSDCCHNQCAAGCTGPRESDCLVCRKFRDEATCKDTCPPLMLYNPTTYQMDVNPEGKYSFGATCVKKCPRNYVVTDHGSCVRACGADSYEMEEDGVRKCKKCEGPCRKVCNGIGIGEFKDSLSINATNIKHFKNCTSISGDLHILPVAFRGDSFTHTPPLDPQELDILKTVKEITGFLLIQAWPENRTDLHAFENLEIIRGRTKQHGQFSLAVVSLNITSLGLRSLKEISDGDVIISGNKNLCYANTINWKKLFGTSGQKTKIISNRGENSCKATGQVCHALCSPEGCWGPEPRDCVSCRNVSRGRECVDKCNLLEGEPREFVENSECIQCHPECLPQAMNITCTGRGPDNCIQCAHYIDGPHCVKTCPAGVMGENNTLVWKYADAGHVCHLCHPNCTYGCTGPGLEGCPTNGPKIPSIATGMVGALLLLLVVALGIGLFMRRRHIVRKRTLRRLLQERELVEPLTPSGEAPNQALLRILKETEFKKIKVLGSGAFGTVYKGLWIPEGEKVKIPVAIKELREATSPKANKEILDEAYVMASVDNPHVCRLLGICLTSTVQLITQLMPFGCLLDYVREHKDNIGSQYLLNWCVQIAKGMNYLEDRRLVHRDLAARNVLVKTPQHVKITDFGLAKLLGAEEKEYHAEGGKVPIKWMALESILHRIYTHQSDVWSYGVTVWELMTFGSKPYDGIPASEISSILEKGERLPQPPICTIDVYMIMVKCWMIDADSRPKFRELIIEFSKMARDPQRYLVIQGDERMHLPSPTDSNFYRALMDEEDMDDVVDADEYLIPQQGFFSSPSTSRTPLLSSLSATSNNSTVACIDRNGLQSCPIKEDSFLQRYSSDPTGALTEDSIDDTFLPVPEYINQSVPKRPAGSVQNPVYHNQPLNPAPSRDPHYQDPHSTAVGNPEYLNTVQPTCVNSTFDSPAHWAQKGSHQISLDNPDYQQDFFPKEAKPNGIFKGSTAENAEYLRVAPQSSEFIGA

> <PDB ID(s) of Target Chain>
1IVO,1M14,1M17,1MOX,1XKK,1Z9I,2GS2,2GS6,2ITW,2ITX,2ITY,2J5E,2J5F,2J6M,2RF9,2RGP,3B2V,3BEL,3GOP,3POZ,3QWQ,3VJO,3W2O,3W2P,3W2Q,3W2R,3W2S,3W32,3W33,4G5J,4I23,4JQ7,4JQ8,4JR3,4JRV,4KRO,4LI5,4RJ4,4RJ5,4RJ6,4RJ7,4RJ8,4TKS,4UIP,4UV7,4WKQ,4WRG,4ZAU,5C8K,5C8M,5C8N,5CAL,5CAN,5CAO,5CAP,5CAQ,5CAS,5CAU,5CAV,5EDP,5EDQ,5EDR,5EM5,5EM6,5EM7,5EM8,5FED,5GNK,5HCX,5HCY,5HCZ,5HIB,5HIC,5UGB,5WB7,5WB8,5Y25,6S89,6S8A

> <UniProt (SwissProt) Recommended Name of Target Chain>
Epidermal growth factor receptor

> <UniProt (SwissProt) Entry Name of Target Chain>
EGFR_HUMAN

> <UniProt (SwissProt) Primary ID of Target Chain>
P00533

> <UniProt (SwissProt) Secondary ID(s) of Target Chain>
O00688,O00732,P06268,Q14225,Q68GS5,Q92795,Q9BZS2,Q9GZX1,Q9H2C9,Q9H3C9,Q9UMD7,Q9UMD8,Q9UMG5

> <UniProt (SwissProt) Alternative ID(s) of Target Chain>


> <UniProt (TrEMBL) Submitted Name of Target Chain>


> <UniProt (TrEMBL) Entry Name of Target Chain>


> <UniProt (TrEMBL) Primary ID of Target Chain>


> <UniProt (TrEMBL) Secondary ID(s) of Target Chain>


> <UniProt (TrEMBL) Alternative ID(s) of Target Chain>


> <training label>
4.4908

> <i_lp_mmshare_version>
54117

> <s_epik_input>
W0NIM11bQ0gyXU4oW0NIMl1bQ0gzXSlbQ0gyXVtDSDJdT2MoW2NIXTEpYyhPW0NIM10pW2NIXWMoYzEyKW5bY0hdbmMyW05IXWMzW2NIXVtjSF1jKFtjSF1bY0hdMylbTkhdQyg9TylbTkhdW0NIXTRbQ0gyXVtDSDJdW0NIMl1bQ0gyXVtDSDJdNA==

> <s_epik_cmdline>
J2VwaWtfcHl0aG9uJywgJy1waHQnLCAnMC4xJywgJy1waCcsICc3LjQnLCAnLXRuJywgJzgnLCAnLW1hJywgJzIwMCcsICctaW1hZScsICc8aW5maWxlLm1hZT4nLCAnLW9tYWUnLCAnPG91dGZpbGUubWFlPic=

> <r_lp_tautomer_probability>
0.999978000241998

> <r_epik_Ionization_Penalty>
  0.0608

> <r_epik_Ionization_Penalty_Charging>
  0.0604

> <r_epik_Ionization_Penalty_Neutral>
  0.0004

> <r_epik_State_Penalty>
  0.0524

> <r_epik_Charging_Adjusted_Penalty>
0.112841773912698

> <i_epik_Tot_Q>
1

> <i_epik_Tot_abs_Q>
1

> <i_f3d_flags>
0

> <s_lp_Force_Field>
OPLS_2005

> <r_lp_Energy>
44.025465

> <b_lp_Chiralities_Consistent>
1

> <s_lp_Variant>
/home/bortolaa/Project/GT/mario-master/ligands/set505ligs_train.sdf:9-1

> <s_i_glide_gridfile>
struct_1_site_1

> <i_i_glide_lignum>
9

> <i_i_glide_rotatable_bonds>
13

> <r_i_docking_score>
-6.97349576854809

> <r_i_glide_ligand_efficiency>
-0.188472858609408

> <r_i_glide_ligand_efficiency_sa>
-0.628033377144522

> <r_i_glide_ligand_efficiency_ln>
-1.51238775026229

> <r_i_glide_gscore>
-7.02589576854809

> <r_i_glide_lipo>
-2.22894673622912

> <r_i_glide_hbond>
-0.76477217988218

> <r_i_glide_metal>
0

> <r_i_glide_rewards>
-0.445822405118928

> <r_i_glide_evdw>
-49.2997016906738

> <r_i_glide_ecoul>
-11.5216636657715

> <r_i_glide_erotb>
0.71481618175118

> <r_i_glide_esite>
-0.107935994669635

> <r_i_glide_emodel>
-39.3805562228676

> <r_i_glide_energy>
-60.8213653564453

> <r_i_glide_einternal>
11.2269887924194

> <i_i_glide_confnum>
375

> <i_i_glide_posenum>
72

> <r_i_glide_eff_state_penalty>
0.0524

> <PMID>
20222760

> <r_glide_shape_similarity>
0.543376266956329

> <pH>
7.5

> <s_m_subgroup_title>
505 training

> <s_m_subgroupid>
pocket_pv

> <b_m_subgroup_collapsed>
0

$$$$
BindingDB_50102094_mol_1
                    3D
 Schrodinger Suite 2021-2.
 46 49  0  0  1  0            999 V2000
   22.0726   -0.1711   53.5106 C   0  0  0  0  0  0
   23.4402   -0.1007   53.8739 C   0  0  0  0  0  0
   21.2568   -1.1176   54.1857 C   0  0  0  0  0  0
   21.5274    0.6514   52.5064 C   0  0  0  0  0  0
   23.9436   -0.9084   54.8327 N   0  0  0  0  0  0
   19.8826   -1.1952   53.8321 C   0  0  0  0  0  0
   16.6952    3.6181   49.6443 N   0  0  0  0  0  0
   24.2876    0.8513   53.2766 N   0  0  0  0  0  0
   18.6285    2.7631   48.8690 N   0  0  0  0  0  0
   20.1812    0.5160   52.0986 C   0  0  0  0  0  0
   19.3331   -0.3815   52.7942 C   0  0  0  0  0  0
   17.9691    3.3288   49.9014 C   0  0  0  0  0  0
   27.9148   -0.0746   53.3861 C   0  0  0  0  0  0
   21.7962   -1.9070   55.1464 N   0  0  0  0  0  0
   26.5116   -0.2013   53.3287 C   0  0  0  0  0  0
   23.0964   -1.7533   55.4185 C   0  0  0  0  0  0
   25.6842    0.9492   53.3404 C   0  0  0  0  0  0
   16.5267    3.2475   48.3032 C   0  0  0  0  0  0
   28.4951    1.2115   53.4584 C   0  0  0  0  0  0
   17.7134    2.7338   47.8154 C   0  0  0  0  0  0
   27.6783    2.3654   53.4303 C   0  0  0  0  0  0
   28.9109   -1.4942   53.3747 Cl  0  0  0  0  0  0
   26.2749    2.2344   53.3692 C   0  0  0  0  0  0
   19.6743    1.2013   51.0092 O   0  0  0  0  0  0
   29.8374    1.3275   53.5814 F   0  0  0  0  0  0
   18.0162   -0.4168   52.3622 O   0  0  0  0  0  0
   20.0083    2.3131   48.8130 C   0  0  0  0  0  0
   20.6018    1.9103   50.1732 C   0  0  0  0  0  0
   17.0275   -0.9966   53.1990 C   0  0  0  0  0  0
   22.1740    1.3578   52.0140 H   0  0  0  0  0  0
   19.2596   -1.8958   54.3658 H   0  0  0  0  0  0
   23.8198    1.6277   52.8307 H   0  0  0  0  0  0
   18.4198    3.5103   50.8668 H   0  0  0  0  0  0
   26.0773   -1.1887   53.2737 H   0  0  0  0  0  0
   23.5092   -2.4034   56.1745 H   0  0  0  0  0  0
   15.5795    3.3710   47.8007 H   0  0  0  0  0  0
   17.9661    2.3375   46.8433 H   0  0  0  0  0  0
   28.1246    3.3487   53.4773 H   0  0  0  0  0  0
   25.6639    3.1262   53.3614 H   0  0  0  0  0  0
   20.0428    1.4540   48.1473 H   0  0  0  0  0  0
   20.6119    3.0927   48.3493 H   0  0  0  0  0  0
   21.4866    1.3076   49.9637 H   0  0  0  0  0  0
   20.9289    2.8075   50.7020 H   0  0  0  0  0  0
   16.0420   -0.8553   52.7542 H   0  0  0  0  0  0
   17.1869   -2.0683   53.3247 H   0  0  0  0  0  0
   17.0219   -0.5159   54.1749 H   0  0  0  0  0  0
  1  2  2  0  0  0
  1  3  1  0  0  0
  1  4  1  0  0  0
  2  5  1  0  0  0
  2  8  1  0  0  0
  3  6  1  0  0  0
  3 14  2  0  0  0
  4 10  2  0  0  0
  4 30  1  0  0  0
  5 16  2  0  0  0
  6 11  2  0  0  0
  6 31  1  0  0  0
  7 12  2  0  0  0
  7 18  1  0  0  0
  8 17  1  0  0  0
  8 32  1  0  0  0
  9 12  1  0  0  0
  9 20  1  0  0  0
  9 27  1  0  0  0
 10 11  1  0  0  0
 10 24  1  0  0  0
 11 26  1  0  0  0
 12 33  1  0  0  0
 13 15  2  0  0  0
 13 19  1  0  0  0
 13 22  1  0  0  0
 14 16  1  0  0  0
 15 17  1  0  0  0
 15 34  1  0  0  0
 16 35  1  0  0  0
 17 23  2  0  0  0
 18 20  2  0  0  0
 18 36  1  0  0  0
 19 21  2  0  0  0
 19 25  1  0  0  0
 20 37  1  0  0  0
 21 23  1  0  0  0
 21 38  1  0  0  0
 23 39  1  0  0  0
 24 28  1  0  0  0
 26 29  1  0  0  0
 27 28  1  0  0  0
 27 40  1  0  0  0
 27 41  1  0  0  0
 28 42  1  0  0  0
 28 43  1  0  0  0
 29 44  1  0  0  0
 29 45  1  0  0  0
 29 46  1  0  0  0
M  END
> <s_m_entry_id>
382

> <s_m_entry_name>
pocket_pv.193

> <s_m_Source_Path>
/home/bortolaa/Project/GT/mario-master/docking/set505protein_struct_1_site_1_set505ligs_train

> <s_m_Source_File>
pocket_pv.maegz

> <i_m_Source_File_Index>
193

> <From>
www.bindingDB.org

> <BindingDB Reactant_set_id>
50733046

> <Ligand InChI>
InChI=1S/C20H17ClFN5O2/c1-28-18-10-17-14(9-19(18)29-7-6-27-5-4-23-12-27)20(25-11-24-17)26-13-2-3-16(22)15(21)8-13/h2-5,8-12H,6-7H2,1H3,(H,24,25,26)

> <Ligand InChI Key>
XXBDUYQPZRPNMB-UHFFFAOYSA-N

> <BindingDB MonomerID>
50102094

> <BindingDB Ligand Name>
(3-Chloro-4-fluoro-phenyl)-[6-(2-imidazol-1-yl-ethoxy)-7-methoxy-quinazolin-4-yl]-amine::CHEMBL294034

> <Target Name Assigned by Curator or DataSource>
Epidermal growth factor receptor

> <Target Source Organism According to Curator or DataSource>
Homo sapiens

> <Ki (nM)>


> <Kd (nM)>


> <EC50 (nM)>


> <kon (M-1-s-1)>


> <koff (s-1)>


> <pH>


> <Temp C>


> <Curation/DataSource>
ChEMBL

> <Article DOI>
10.1016/s0960-894x(01)00344-4

> <PubChem AID>


> <Patent Number>


> <Authors>
Barker, AJ; Gibson, KH; Grundy, W; Godfrey, AA; Barlow, JJ; Healy, MP; Woodburn, JR; Ashton, SE; Curry, BJ; Scarlett, L; Henthorn, L; Richards, L

> <Institution>
AstraZeneca

> <Link to Ligand in BindingDB>
http://www.bindingdb.org/bind/chemsearch/marvin/MolStructure.jsp?monomerid=50102094

> <Link to Ligand-Target Pair in BindingDB>
http://www.bindingdb.org/jsp/dbsearch/PrimarySearch_ki.jsp?energyterm=kJ/mole&tag=r21&monomerid=50102094&enzyme=Epidermal+growth+factor+receptor&column=ki&startPg=0&Increment=50&submit=Search

> <Ligand HET ID in PDB>


> <PDB ID(s) for Ligand-Target Complex>


> <PubChem CID>
19077506

> <PubChem SID>
103998650

> <ChEBI ID of Ligand>


> <ChEMBL ID of Ligand>
CHEMBL294034

> <DrugBank ID of Ligand>


> <IUPHAR_GRAC ID of Ligand>


> <KEGG ID of Ligand>


> <ZINC ID of Ligand>
ZINC29559968

> <Number of Protein Chains in Target (>
1

> <BindingDB Target Chain Sequence>
MRPSGTAGAALLALLAALCPASRALEEKKVCQGTSNKLTQLGTFEDHFLSLQRMFNNCEVVLGNLEITYVQRNYDLSFLKTIQEVAGYVLIALNTVERIPLENLQIIRGNMYYENSYALAVLSNYDANKTGLKELPMRNLQEILHGAVRFSNNPALCNVESIQWRDIVSSDFLSNMSMDFQNHLGSCQKCDPSCPNGSCWGAGEENCQKLTKIICAQQCSGRCRGKSPSDCCHNQCAAGCTGPRESDCLVCRKFRDEATCKDTCPPLMLYNPTTYQMDVNPEGKYSFGATCVKKCPRNYVVTDHGSCVRACGADSYEMEEDGVRKCKKCEGPCRKVCNGIGIGEFKDSLSINATNIKHFKNCTSISGDLHILPVAFRGDSFTHTPPLDPQELDILKTVKEITGFLLIQAWPENRTDLHAFENLEIIRGRTKQHGQFSLAVVSLNITSLGLRSLKEISDGDVIISGNKNLCYANTINWKKLFGTSGQKTKIISNRGENSCKATGQVCHALCSPEGCWGPEPRDCVSCRNVSRGRECVDKCNLLEGEPREFVENSECIQCHPECLPQAMNITCTGRGPDNCIQCAHYIDGPHCVKTCPAGVMGENNTLVWKYADAGHVCHLCHPNCTYGCTGPGLEGCPTNGPKIPSIATGMVGALLLLLVVALGIGLFMRRRHIVRKRTLRRLLQERELVEPLTPSGEAPNQALLRILKETEFKKIKVLGSGAFGTVYKGLWIPEGEKVKIPVAIKELREATSPKANKEILDEAYVMASVDNPHVCRLLGICLTSTVQLITQLMPFGCLLDYVREHKDNIGSQYLLNWCVQIAKGMNYLEDRRLVHRDLAARNVLVKTPQHVKITDFGLAKLLGAEEKEYHAEGGKVPIKWMALESILHRIYTHQSDVWSYGVTVWELMTFGSKPYDGIPASEISSILEKGERLPQPPICTIDVYMIMVKCWMIDADSRPKFRELIIEFSKMARDPQRYLVIQGDERMHLPSPTDSNFYRALMDEEDMDDVVDADEYLIPQQGFFSSPSTSRTPLLSSLSATSNNSTVACIDRNGLQSCPIKEDSFLQRYSSDPTGALTEDSIDDTFLPVPEYINQSVPKRPAGSVQNPVYHNQPLNPAPSRDPHYQDPHSTAVGNPEYLNTVQPTCVNSTFDSPAHWAQKGSHQISLDNPDYQQDFFPKEAKPNGIFKGSTAENAEYLRVAPQSSEFIGA

> <PDB ID(s) of Target Chain>
1IVO,1M14,1M17,1MOX,1XKK,1Z9I,2GS2,2GS6,2ITW,2ITX,2ITY,2J5E,2J5F,2J6M,2RF9,2RGP,3B2V,3BEL,3GOP,3POZ,3QWQ,3VJO,3W2O,3W2P,3W2Q,3W2R,3W2S,3W32,3W33,4G5J,4I23,4JQ7,4JQ8,4JR3,4JRV,4KRO,4LI5,4RJ4,4RJ5,4RJ6,4RJ7,4RJ8,4TKS,4UIP,4UV7,4WKQ,4WRG,4ZAU,5C8K,5C8M,5C8N,5CAL,5CAN,5CAO,5CAP,5CAQ,5CAS,5CAU,5CAV,5EDP,5EDQ,5EDR,5EM5,5EM6,5EM7,5EM8,5FED,5GNK,5HCX,5HCY,5HCZ,5HIB,5HIC,5UGB,5WB7,5WB8,5Y25,6S89,6S8A

> <UniProt (SwissProt) Recommended Name of Target Chain>
Epidermal growth factor receptor

> <UniProt (SwissProt) Entry Name of Target Chain>
EGFR_HUMAN

> <UniProt (SwissProt) Primary ID of Target Chain>
P00533

> <UniProt (SwissProt) Secondary ID(s) of Target Chain>
O00688,O00732,P06268,Q14225,Q68GS5,Q92795,Q9BZS2,Q9GZX1,Q9H2C9,Q9H3C9,Q9UMD7,Q9UMD8,Q9UMG5

> <UniProt (SwissProt) Alternative ID(s) of Target Chain>


> <UniProt (TrEMBL) Submitted Name of Target Chain>


> <UniProt (TrEMBL) Entry Name of Target Chain>


> <UniProt (TrEMBL) Primary ID of Target Chain>


> <UniProt (TrEMBL) Secondary ID(s) of Target Chain>


> <UniProt (TrEMBL) Alternative ID(s) of Target Chain>


> <training label>
7.18046

> <i_lp_mmshare_version>
54117

> <s_epik_input>
RmMxW2NIXVtjSF1jKFtjSF1jMUNsKVtOSF1jMm5bY0hdbmMoYzIzKVtjSF1jKE9bQ0gzXSljKFtjSF0zKU9bQ0gyXVtDSDJdbjRbY0hdbltjSF1bY0hdNA==

> <s_epik_cmdline>
J2VwaWtfcHl0aG9uJywgJy1waHQnLCAnMC4xJywgJy1waCcsICc3LjQnLCAnLXRuJywgJzgnLCAnLW1hJywgJzIwMCcsICctaW1hZScsICc8aW5maWxlLm1hZT4nLCAnLW9tYWUnLCAnPG91dGZpbGUubWFlPic=

> <r_lp_tautomer_probability>
0.999978000241998

> <r_epik_Ionization_Penalty>
  0.1951

> <r_epik_Ionization_Penalty_Charging>
  0.1948

> <r_epik_Ionization_Penalty_Neutral>
  0.0004

> <r_epik_State_Penalty>
  0.1845

> <r_epik_Charging_Adjusted_Penalty>
0.379236143088111

> <i_epik_Tot_Q>
0

> <i_epik_Tot_abs_Q>
0

> <i_f3d_flags>
0

> <s_lp_Force_Field>
OPLS_2005

> <r_lp_Energy>
20.770878

> <b_lp_Chiralities_Consistent>
1

> <s_lp_Variant>
BindingDB_50102094_mol_1-1

> <s_i_glide_gridfile>
struct_1_site_1

> <i_i_glide_lignum>
179

> <i_i_glide_rotatable_bonds>
7

> <r_i_docking_score>
-6.96995733811547

> <r_i_glide_ligand_efficiency>
-0.24034335648674

> <r_i_glide_ligand_efficiency_sa>
-0.738410937247208

> <r_i_glide_ligand_efficiency_ln>
-1.59594348756014

> <r_i_glide_gscore>
-7.15445733811547

> <r_i_glide_lipo>
-2.93309570942169

> <r_i_glide_hbond>
-0.32

> <r_i_glide_metal>
0

> <r_i_glide_rewards>
-1.73505261144146

> <r_i_glide_evdw>
-42.7285003662109

> <r_i_glide_ecoul>
-3.58283948898315

> <r_i_glide_erotb>
0.576089746772744

> <r_i_glide_esite>
-0.0685478223670431

> <r_i_glide_emodel>
-55.8614610671269

> <r_i_glide_energy>
-46.3113398551941

> <r_i_glide_einternal>
4.34184265136719

> <i_i_glide_confnum>
14

> <i_i_glide_posenum>
168

> <r_i_glide_eff_state_penalty>
0.1845

> <IC50 (nM)>
66

> <PMID>
11459659

> <r_glide_shape_similarity>
0.8857661485672

> <s_m_subgroup_title>
505 training

> <s_m_subgroupid>
pocket_pv

> <b_m_subgroup_collapsed>
0

$$$$
BindingDB_50451193_mol_1
                    3D
 Schrodinger Suite 2021-2.
 52 55  0  0  1  0            999 V2000
   22.0733   -0.1737   53.5094 C   0  0  0  0  0  0
   23.4407   -0.1010   53.8732 C   0  0  0  0  0  0
   21.2609   -1.1228   54.1846 C   0  0  0  0  0  0
   21.5200    0.6529   52.5138 C   0  0  0  0  0  0
   23.9441   -0.9085   54.8323 N   0  0  0  0  0  0
   19.8889   -1.2083   53.8361 C   0  0  0  0  0  0
   24.2873    0.8517   53.2762 N   0  0  0  0  0  0
   20.1677    0.5313   52.1379 C   0  0  0  0  0  0
   19.3241   -0.3784   52.8225 C   0  0  0  0  0  0
   27.9141   -0.0741   53.3858 C   0  0  0  0  0  0
   21.7990   -1.9096   55.1463 N   0  0  0  0  0  0
   26.5113   -0.2008   53.3288 C   0  0  0  0  0  0
   18.7342    2.6543   48.4814 N   0  0  0  0  0  0
   23.0977   -1.7535   55.4185 C   0  0  0  0  0  0
   25.6840    0.9495   53.3402 C   0  0  0  0  0  0
   28.4943    1.2121   53.4592 C   0  0  0  0  0  0
   16.0527    3.5760   47.9162 O   0  0  0  0  0  0
   27.6778    2.3655   53.4309 C   0  0  0  0  0  0
   28.9104   -1.4932   53.3742 Cl  0  0  0  0  0  0
   26.2748    2.2344   53.3690 C   0  0  0  0  0  0
   19.6565    1.3277   51.1398 O   0  0  0  0  0  0
   29.8367    1.3272   53.5823 F   0  0  0  0  0  0
   17.9925   -0.3866   52.4359 O   0  0  0  0  0  0
   20.0178    2.7104   49.1825 C   0  0  0  0  0  0
   20.4211    1.4319   49.9293 C   0  0  0  0  0  0
   17.5916    2.3266   49.3532 C   0  0  0  0  0  0
   18.4716    3.9232   47.7904 C   0  0  0  0  0  0
   17.1243    3.9099   47.0211 C   0  0  0  0  0  0
   16.2489    2.3207   48.5812 C   0  0  0  0  0  0
   17.0561   -1.1315   53.2028 C   0  0  0  0  0  0
   22.1391    1.3943   52.0373 H   0  0  0  0  0  0
   19.2746   -1.9145   54.3726 H   0  0  0  0  0  0
   23.8194    1.6285   52.8306 H   0  0  0  0  0  0
   26.0767   -1.1880   53.2724 H   0  0  0  0  0  0
   23.5122   -2.4036   56.1734 H   0  0  0  0  0  0
   28.1243    3.3485   53.4781 H   0  0  0  0  0  0
   25.6642    3.1270   53.3609 H   0  0  0  0  0  0
   20.7940    2.9212   48.4460 H   0  0  0  0  0  0
   20.0350    3.5498   49.8783 H   0  0  0  0  0  0
   20.2407    0.5575   49.3043 H   0  0  0  0  0  0
   21.4965    1.4736   50.0827 H   0  0  0  0  0  0
   17.5346    3.0358   50.1805 H   0  0  0  0  0  0
   17.7171    1.3313   49.7823 H   0  0  0  0  0  0
   19.2837    4.1441   47.0961 H   0  0  0  0  0  0
   18.4515    4.7390   48.5150 H   0  0  0  0  0  0
   17.1578    3.1885   46.2026 H   0  0  0  0  0  0
   16.9300    4.8887   46.5819 H   0  0  0  0  0  0
   16.2440    1.5146   47.8448 H   0  0  0  0  0  0
   15.4147    2.1405   49.2594 H   0  0  0  0  0  0
   16.0473   -0.9338   52.8409 H   0  0  0  0  0  0
   17.2412   -2.2022   53.1105 H   0  0  0  0  0  0
   17.0908   -0.8576   54.2577 H   0  0  0  0  0  0
  1  2  2  0  0  0
  1  3  1  0  0  0
  1  4  1  0  0  0
  2  5  1  0  0  0
  2  7  1  0  0  0
  3  6  1  0  0  0
  3 11  2  0  0  0
  4  8  2  0  0  0
  4 31  1  0  0  0
  5 14  2  0  0  0
  6  9  2  0  0  0
  6 32  1  0  0  0
  7 15  1  0  0  0
  7 33  1  0  0  0
  8  9  1  0  0  0
  8 21  1  0  0  0
  9 23  1  0  0  0
 10 12  2  0  0  0
 10 19  1  0  0  0
 10 16  1  0  0  0
 11 14  1  0  0  0
 12 15  1  0  0  0
 12 34  1  0  0  0
 13 24  1  0  0  0
 13 26  1  0  0  0
 13 27  1  0  0  0
 14 35  1  0  0  0
 15 20  2  0  0  0
 16 18  2  0  0  0
 16 22  1  0  0  0
 17 28  1  0  0  0
 17 29  1  0  0  0
 18 20  1  0  0  0
 18 36  1  0  0  0
 20 37  1  0  0  0
 21 25  1  0  0  0
 23 30  1  0  0  0
 24 25  1  0  0  0
 24 38  1  0  0  0
 24 39  1  0  0  0
 25 40  1  0  0  0
 25 41  1  0  0  0
 26 29  1  0  0  0
 26 42  1  0  0  0
 26 43  1  0  0  0
 27 28  1  0  0  0
 27 44  1  0  0  0
 27 45  1  0  0  0
 28 46  1  0  0  0
 28 47  1  0  0  0
 29 48  1  0  0  0
 29 49  1  0  0  0
 30 50  1  0  0  0
 30 51  1  0  0  0
 30 52  1  0  0  0
M  END
> <s_m_entry_id>
383

> <s_m_entry_name>
pocket_pv.194

> <s_m_Source_Path>
/home/bortolaa/Project/GT/mario-master/docking/set505protein_struct_1_site_1_set505ligs_train

> <s_m_Source_File>
pocket_pv.maegz

> <i_m_Source_File_Index>
194

> <From>
www.bindingDB.org

> <BindingDB Reactant_set_id>
50014261

> <Ligand InChI>
InChI=1S/C21H22ClFN4O3/c1-28-19-12-18-15(11-20(19)30-9-6-27-4-7-29-8-5-27)21(25-13-24-18)26-14-2-3-17(23)16(22)10-14/h2-3,10-13H,4-9H2,1H3,(H,24,25,26)

> <Ligand InChI Key>
STNFCUFBMSVMBL-UHFFFAOYSA-N

> <BindingDB MonomerID>
50451193

> <BindingDB Ligand Name>
CHEMBL14699

> <Target Name Assigned by Curator or DataSource>
Epidermal growth factor receptor

> <Target Source Organism According to Curator or DataSource>
Homo sapiens

> <Ki (nM)>


> <Kd (nM)>


> <EC50 (nM)>


> <kon (M-1-s-1)>


> <koff (s-1)>


> <pH>


> <Temp C>


> <Curation/DataSource>
ChEMBL

> <Article DOI>
10.1016/s0960-894x(01)00344-4

> <PubChem AID>


> <Patent Number>


> <Authors>
Barker, AJ; Gibson, KH; Grundy, W; Godfrey, AA; Barlow, JJ; Healy, MP; Woodburn, JR; Ashton, SE; Curry, BJ; Scarlett, L; Henthorn, L; Richards, L

> <Institution>
AstraZeneca

> <Link to Ligand in BindingDB>
http://www.bindingdb.org/bind/chemsearch/marvin/MolStructure.jsp?monomerid=50451193

> <Link to Ligand-Target Pair in BindingDB>
http://www.bindingdb.org/jsp/dbsearch/PrimarySearch_ki.jsp?energyterm=kJ/mole&tag=r21&monomerid=50451193&enzyme=Epidermal+growth+factor+receptor&column=ki&startPg=0&Increment=50&submit=Search

> <Ligand HET ID in PDB>


> <PDB ID(s) for Ligand-Target Complex>


> <PubChem CID>
10159951

> <PubChem SID>
225145302

> <ChEBI ID of Ligand>


> <ChEMBL ID of Ligand>
CHEMBL14699

> <DrugBank ID of Ligand>


> <IUPHAR_GRAC ID of Ligand>


> <KEGG ID of Ligand>


> <ZINC ID of Ligand>


> <Number of Protein Chains in Target (>
1

> <BindingDB Target Chain Sequence>
MRPSGTAGAALLALLAALCPASRALEEKKVCQGTSNKLTQLGTFEDHFLSLQRMFNNCEVVLGNLEITYVQRNYDLSFLKTIQEVAGYVLIALNTVERIPLENLQIIRGNMYYENSYALAVLSNYDANKTGLKELPMRNLQEILHGAVRFSNNPALCNVESIQWRDIVSSDFLSNMSMDFQNHLGSCQKCDPSCPNGSCWGAGEENCQKLTKIICAQQCSGRCRGKSPSDCCHNQCAAGCTGPRESDCLVCRKFRDEATCKDTCPPLMLYNPTTYQMDVNPEGKYSFGATCVKKCPRNYVVTDHGSCVRACGADSYEMEEDGVRKCKKCEGPCRKVCNGIGIGEFKDSLSINATNIKHFKNCTSISGDLHILPVAFRGDSFTHTPPLDPQELDILKTVKEITGFLLIQAWPENRTDLHAFENLEIIRGRTKQHGQFSLAVVSLNITSLGLRSLKEISDGDVIISGNKNLCYANTINWKKLFGTSGQKTKIISNRGENSCKATGQVCHALCSPEGCWGPEPRDCVSCRNVSRGRECVDKCNLLEGEPREFVENSECIQCHPECLPQAMNITCTGRGPDNCIQCAHYIDGPHCVKTCPAGVMGENNTLVWKYADAGHVCHLCHPNCTYGCTGPGLEGCPTNGPKIPSIATGMVGALLLLLVVALGIGLFMRRRHIVRKRTLRRLLQERELVEPLTPSGEAPNQALLRILKETEFKKIKVLGSGAFGTVYKGLWIPEGEKVKIPVAIKELREATSPKANKEILDEAYVMASVDNPHVCRLLGICLTSTVQLITQLMPFGCLLDYVREHKDNIGSQYLLNWCVQIAKGMNYLEDRRLVHRDLAARNVLVKTPQHVKITDFGLAKLLGAEEKEYHAEGGKVPIKWMALESILHRIYTHQSDVWSYGVTVWELMTFGSKPYDGIPASEISSILEKGERLPQPPICTIDVYMIMVKCWMIDADSRPKFRELIIEFSKMARDPQRYLVIQGDERMHLPSPTDSNFYRALMDEEDMDDVVDADEYLIPQQGFFSSPSTSRTPLLSSLSATSNNSTVACIDRNGLQSCPIKEDSFLQRYSSDPTGALTEDSIDDTFLPVPEYINQSVPKRPAGSVQNPVYHNQPLNPAPSRDPHYQDPHSTAVGNPEYLNTVQPTCVNSTFDSPAHWAQKGSHQISLDNPDYQQDFFPKEAKPNGIFKGSTAENAEYLRVAPQSSEFIGA

> <PDB ID(s) of Target Chain>
1IVO,1M14,1M17,1MOX,1XKK,1Z9I,2GS2,2GS6,2ITW,2ITX,2ITY,2J5E,2J5F,2J6M,2RF9,2RGP,3B2V,3BEL,3GOP,3POZ,3QWQ,3VJO,3W2O,3W2P,3W2Q,3W2R,3W2S,3W32,3W33,4G5J,4I23,4JQ7,4JQ8,4JR3,4JRV,4KRO,4LI5,4RJ4,4RJ5,4RJ6,4RJ7,4RJ8,4TKS,4UIP,4UV7,4WKQ,4WRG,4ZAU,5C8K,5C8M,5C8N,5CAL,5CAN,5CAO,5CAP,5CAQ,5CAS,5CAU,5CAV,5EDP,5EDQ,5EDR,5EM5,5EM6,5EM7,5EM8,5FED,5GNK,5HCX,5HCY,5HCZ,5HIB,5HIC,5UGB,5WB7,5WB8,5Y25,6S89,6S8A

> <UniProt (SwissProt) Recommended Name of Target Chain>
Epidermal growth factor receptor

> <UniProt (SwissProt) Entry Name of Target Chain>
EGFR_HUMAN

> <UniProt (SwissProt) Primary ID of Target Chain>
P00533

> <UniProt (SwissProt) Secondary ID(s) of Target Chain>
O00688,O00732,P06268,Q14225,Q68GS5,Q92795,Q9BZS2,Q9GZX1,Q9H2C9,Q9H3C9,Q9UMD7,Q9UMD8,Q9UMG5

> <UniProt (SwissProt) Alternative ID(s) of Target Chain>


> <UniProt (TrEMBL) Submitted Name of Target Chain>


> <UniProt (TrEMBL) Entry Name of Target Chain>


> <UniProt (TrEMBL) Primary ID of Target Chain>


> <UniProt (TrEMBL) Secondary ID(s) of Target Chain>


> <UniProt (TrEMBL) Alternative ID(s) of Target Chain>


> <training label>
8

> <i_lp_mmshare_version>
54117

> <s_epik_input>
RmMxW2NIXVtjSF1jKFtjSF1jMUNsKVtOSF1jMm5bY0hdbmMoYzIzKVtjSF1jKE9bQ0gzXSljKFtjSF0zKU9bQ0gyXVtDSDJdTjRbQ0gyXVtDSDJdT1tDSDJdW0NIMl00

> <s_epik_cmdline>
J2VwaWtfcHl0aG9uJywgJy1waHQnLCAnMC4xJywgJy1waCcsICc3LjQnLCAnLXRuJywgJzgnLCAnLW1hJywgJzIwMCcsICctaW1hZScsICc8aW5maWxlLm1hZT4nLCAnLW9tYWUnLCAnPG91dGZpbGUubWFlPic=

> <r_lp_tautomer_probability>
0.999978000241998

> <r_epik_Ionization_Penalty>
  0.0268

> <r_epik_Ionization_Penalty_Charging>
  0.0000

> <r_epik_Ionization_Penalty_Neutral>
  0.0268

> <r_epik_State_Penalty>
  0.0215

> <r_epik_Charging_Adjusted_Penalty>
0.0215152733143456

> <i_epik_Tot_Q>
0

> <i_epik_Tot_abs_Q>
0

> <i_f3d_flags>
0

> <s_lp_Force_Field>
OPLS_2005

> <r_lp_Energy>
40.707515

> <b_lp_Chiralities_Consistent>
1

> <s_lp_Variant>
BindingDB_50451193_mol_1-1

> <s_i_glide_gridfile>
struct_1_site_1

> <i_i_glide_lignum>
235

> <i_i_glide_rotatable_bonds>
7

> <r_i_docking_score>
-6.96471842046272

> <r_i_glide_ligand_efficiency>
-0.232157280682091

> <r_i_glide_ligand_efficiency_sa>
-0.72136664821141

> <r_i_glide_ligand_efficiency_ln>
-1.58245991181437

> <r_i_glide_gscore>
-6.98621842046272

> <r_i_glide_lipo>
-2.96488312472377

> <r_i_glide_hbond>
-0.32

> <r_i_glide_metal>
0

> <r_i_glide_rewards>
-1.60089185405312

> <r_i_glide_evdw>
-41.9072494506836

> <r_i_glide_ecoul>
-3.13056635856628

> <r_i_glide_erotb>
0.531064608948368

> <r_i_glide_esite>
-0.066560624315082

> <r_i_glide_emodel>
-53.8177661683926

> <r_i_glide_energy>
-45.0378158092499

> <r_i_glide_einternal>
1.21060645580292

> <i_i_glide_confnum>
48

> <i_i_glide_posenum>
102

> <r_i_glide_eff_state_penalty>
0.0215

> <IC50 (nM)>
10

> <PMID>
11459659

> <r_glide_shape_similarity>
0.871468126773834

> <s_m_subgroup_title>
505 training

> <s_m_subgroupid>
pocket_pv

> <b_m_subgroup_collapsed>
0

$$$$
/home/bortolaa/Project/GT/mario-master/ligands/set505ligs_train.sdf:12
                    3D
 Schrodinger Suite 2021-2.
 70 73  0  0  1  0            999 V2000
   23.4575   -0.1034   53.8009 C   0  0  0  0  0  0
   24.7512    0.4361   53.5809 C   0  0  0  0  0  0
   25.7856   -0.0152   54.4364 C   0  0  0  0  0  0
   25.5133   -0.8734   55.4386 N   0  0  0  0  0  0
   24.2650   -1.3302   55.5530 C   0  0  0  0  0  0
   23.2347   -1.0021   54.7816 N   0  0  0  0  0  0
   27.0907    0.4812   54.2625 C   0  0  0  0  0  0
   27.3650    1.4933   53.3144 C   0  0  0  0  0  0
   26.3337    1.9603   52.4696 C   0  0  0  0  0  0
   25.0365    1.4048   52.5951 C   0  0  0  0  0  0
   26.6728    2.9730   51.5837 O   0  0  0  0  0  0
   25.8840    3.2407   50.4159 C   0  0  0  0  0  0
   28.6033    2.0737   53.1693 O   0  0  0  0  0  0
   29.5481    1.8793   54.2119 C   0  0  0  0  0  0
   22.3963    0.3187   52.9885 N   0  0  0  0  0  0
   21.0427   -0.0289   52.9526 C   0  0  0  0  0  0
   20.4153   -0.9546   53.8216 C   0  0  0  0  0  0
   19.0403   -1.1991   53.7113 C   0  0  0  0  0  0
   18.2657   -0.5242   52.7465 C   0  0  0  0  0  0
   18.8918    0.3744   51.8531 C   0  0  0  0  0  0
   20.2702    0.6183   51.9647 C   0  0  0  0  0  0
   16.8747   -0.7774   52.7903 N   0  0  0  0  0  0
   15.8718   -0.0653   52.2550 C   0  0  0  0  0  0
   14.7653   -0.2315   52.9925 N   0  0  0  0  0  0
   15.9529    0.6137   51.2325 O   0  0  0  0  0  0
   13.4310    0.1638   52.7238 C   0  0  0  0  0  0
   12.4135   -0.5439   53.4053 C   0  0  0  0  0  0
   11.0483   -0.2592   53.1621 C   0  0  0  0  0  0
   10.6960    0.7575   52.2406 C   0  0  0  0  0  0
   11.7117    1.5087   51.6010 C   0  0  0  0  0  0
   13.0748    1.2180   51.8410 C   0  0  0  0  0  0
    9.3903    1.0011   51.9564 F   0  0  0  0  0  0
    9.8228   -1.1840   53.9701 Cl  0  0  0  0  0  0
   25.5433    4.7487   50.2795 C   0  0  0  0  0  0
   24.6895    5.3097   51.3742 N   0  3  0  0  0  0
   24.6878    6.8045   51.3946 C   0  0  0  0  0  0
   23.3303    4.6901   51.4627 C   0  0  0  0  0  0
   22.5312    5.1027   52.7080 C   0  0  0  0  0  0
   23.9041    7.4699   50.2430 C   0  0  0  0  0  0
   24.0720   -2.0361   56.3444 H   0  0  0  0  0  0
   27.8624    0.1004   54.9132 H   0  0  0  0  0  0
   24.2338    1.7367   51.9658 H   0  0  0  0  0  0
   26.5137    2.9646   49.5690 H   0  0  0  0  0  0
   24.9978    2.6258   50.2911 H   0  0  0  0  0  0
   30.2853    2.6798   54.1751 H   0  0  0  0  0  0
   29.0968    1.9361   55.2015 H   0  0  0  0  0  0
   30.0663    0.9250   54.1016 H   0  0  0  0  0  0
   22.6541    1.0024   52.2975 H   0  0  0  0  0  0
   20.9263   -1.4956   54.5962 H   0  0  0  0  0  0
   18.5742   -1.8913   54.3983 H   0  0  0  0  0  0
   18.3374    0.9007   51.0929 H   0  0  0  0  0  0
   20.7251    1.3265   51.2880 H   0  0  0  0  0  0
   16.6000   -1.4128   53.5272 H   0  0  0  0  0  0
   14.8621   -0.8049   53.8240 H   0  0  0  0  0  0
   12.6694   -1.3296   54.1013 H   0  0  0  0  0  0
   11.4372    2.3010   50.9196 H   0  0  0  0  0  0
   13.8266    1.8051   51.3370 H   0  0  0  0  0  0
   26.4837    5.2989   50.2497 H   0  0  0  0  0  0
   25.0573    4.9206   49.3191 H   0  0  0  0  0  0
   24.2895    7.1388   52.3520 H   0  0  0  0  0  0
   25.7197    7.1577   51.3804 H   0  0  0  0  0  0
   22.7557    4.9082   50.5592 H   0  0  0  0  0  0
   23.4248    3.6115   51.5025 H   0  0  0  0  0  0
   21.7176    4.3968   52.8842 H   0  0  0  0  0  0
   23.1498    5.1323   53.6064 H   0  0  0  0  0  0
   22.0892    6.0867   52.5711 H   0  0  0  0  0  0
   23.9808    8.5541   50.3162 H   0  0  0  0  0  0
   24.2936    7.1778   49.2686 H   0  0  0  0  0  0
   22.8421    7.2245   50.2741 H   0  0  0  0  0  0
   25.2142    5.0980   52.2279 H   0  0  0  0  0  0
  1  2  2  0  0  0
  1  6  1  0  0  0
  1 15  1  0  0  0
  2 10  1  0  0  0
  2  3  1  0  0  0
  3  4  2  0  0  0
  3  7  1  0  0  0
  4  5  1  0  0  0
  5  6  2  0  0  0
  5 40  1  0  0  0
  7  8  2  0  0  0
  7 41  1  0  0  0
  8  9  1  0  0  0
  8 13  1  0  0  0
  9 10  2  0  0  0
  9 11  1  0  0  0
 10 42  1  0  0  0
 11 12  1  0  0  0
 12 34  1  0  0  0
 12 43  1  0  0  0
 12 44  1  0  0  0
 13 14  1  0  0  0
 14 45  1  0  0  0
 14 46  1  0  0  0
 14 47  1  0  0  0
 15 16  1  0  0  0
 15 48  1  0  0  0
 16 17  2  0  0  0
 16 21  1  0  0  0
 17 18  1  0  0  0
 17 49  1  0  0  0
 18 19  2  0  0  0
 18 50  1  0  0  0
 19 20  1  0  0  0
 19 22  1  0  0  0
 20 21  2  0  0  0
 20 51  1  0  0  0
 21 52  1  0  0  0
 22 23  1  0  0  0
 22 53  1  0  0  0
 23 24  1  0  0  0
 23 25  2  0  0  0
 24 26  1  0  0  0
 24 54  1  0  0  0
 26 27  2  0  0  0
 26 31  1  0  0  0
 27 28  1  0  0  0
 27 55  1  0  0  0
 28 29  2  0  0  0
 28 33  1  0  0  0
 29 30  1  0  0  0
 29 32  1  0  0  0
 30 31  2  0  0  0
 30 56  1  0  0  0
 31 57  1  0  0  0
 34 35  1  0  0  0
 34 58  1  0  0  0
 34 59  1  0  0  0
 35 36  1  0  0  0
 35 37  1  0  0  0
 35 70  1  0  0  0
 36 39  1  0  0  0
 36 60  1  0  0  0
 36 61  1  0  0  0
 37 38  1  0  0  0
 37 62  1  0  0  0
 37 63  1  0  0  0
 38 64  1  0  0  0
 38 65  1  0  0  0
 38 66  1  0  0  0
 39 67  1  0  0  0
 39 68  1  0  0  0
 39 69  1  0  0  0
M  CHG  1  35   1
M  END
> <s_m_entry_id>
384

> <s_m_entry_name>
pocket_pv.195

> <s_m_Source_Path>
/home/bortolaa/Project/GT/mario-master/docking/set505protein_struct_1_site_1_set505ligs_train

> <s_m_Source_File>
pocket_pv.maegz

> <i_m_Source_File_Index>
195

> <From>
www.bindingDB.org

> <BindingDB Reactant_set_id>
406595

> <Ligand InChI>
InChI=1S/C28H30ClFN6O3/c1-4-36(5-2)12-13-39-26-15-21-24(16-25(26)38-3)31-17-32-27(21)33-18-6-8-19(9-7-18)34-28(37)35-20-10-11-23(30)22(29)14-20/h6-11,14-17H,4-5,12-13H2,1-3H3,(H,31,32,33)(H2,34,35,37)

> <Ligand InChI Key>
UYOIMRQPVGPJCF-UHFFFAOYSA-N

> <BindingDB MonomerID>
233108

> <BindingDB Ligand Name>
N-{4-[6-(2-Diethylaminoethoxy)-7-methoxy-quinazolin-4-ylamino]phenyl}-N&#39;-(3-chloro-4-fluorophenyl)urea hydrochloride (19g)

> <Target Name Assigned by Curator or DataSource>
Epidermal growth factor receptor

> <Target Source Organism According to Curator or DataSource>
Homo sapiens

> <Ki (nM)>


> <IC50 (nM)>
29200

> <Kd (nM)>


> <EC50 (nM)>


> <kon (M-1-s-1)>


> <koff (s-1)>


> <Temp C>


> <Curation/DataSource>
Curated from the literature by BindingDB

> <Article DOI>
10.3109/14756360903169485

> <PubChem AID>


> <Patent Number>


> <Authors>
Garofalo, A; Goossens, L; Lemoine, A; Farce, A; Arlot, Y; Depreux, P

> <Institution>
Université Lille Nord de France

> <Link to Ligand in BindingDB>
http://www.bindingdb.org/bind/chemsearch/marvin/MolStructure.jsp?monomerid=233108

> <Link to Ligand-Target Pair in BindingDB>
http://www.bindingdb.org/jsp/dbsearch/PrimarySearch_ki.jsp?energyterm=kJ/mole&tag=r21&monomerid=233108&enzyme=Epidermal+growth+factor+receptor&column=ki&startPg=0&Increment=50&submit=Search

> <Ligand HET ID in PDB>


> <PDB ID(s) for Ligand-Target Complex>


> <PubChem CID>
129010606

> <PubChem SID>
340093202

> <ChEBI ID of Ligand>


> <ChEMBL ID of Ligand>


> <DrugBank ID of Ligand>


> <IUPHAR_GRAC ID of Ligand>


> <KEGG ID of Ligand>


> <ZINC ID of Ligand>


> <Number of Protein Chains in Target (>
1

> <BindingDB Target Chain Sequence>
MRPSGTAGAALLALLAALCPASRALEEKKVCQGTSNKLTQLGTFEDHFLSLQRMFNNCEVVLGNLEITYVQRNYDLSFLKTIQEVAGYVLIALNTVERIPLENLQIIRGNMYYENSYALAVLSNYDANKTGLKELPMRNLQEILHGAVRFSNNPALCNVESIQWRDIVSSDFLSNMSMDFQNHLGSCQKCDPSCPNGSCWGAGEENCQKLTKIICAQQCSGRCRGKSPSDCCHNQCAAGCTGPRESDCLVCRKFRDEATCKDTCPPLMLYNPTTYQMDVNPEGKYSFGATCVKKCPRNYVVTDHGSCVRACGADSYEMEEDGVRKCKKCEGPCRKVCNGIGIGEFKDSLSINATNIKHFKNCTSISGDLHILPVAFRGDSFTHTPPLDPQELDILKTVKEITGFLLIQAWPENRTDLHAFENLEIIRGRTKQHGQFSLAVVSLNITSLGLRSLKEISDGDVIISGNKNLCYANTINWKKLFGTSGQKTKIISNRGENSCKATGQVCHALCSPEGCWGPEPRDCVSCRNVSRGRECVDKCNLLEGEPREFVENSECIQCHPECLPQAMNITCTGRGPDNCIQCAHYIDGPHCVKTCPAGVMGENNTLVWKYADAGHVCHLCHPNCTYGCTGPGLEGCPTNGPKIPSIATGMVGALLLLLVVALGIGLFMRRRHIVRKRTLRRLLQERELVEPLTPSGEAPNQALLRILKETEFKKIKVLGSGAFGTVYKGLWIPEGEKVKIPVAIKELREATSPKANKEILDEAYVMASVDNPHVCRLLGICLTSTVQLITQLMPFGCLLDYVREHKDNIGSQYLLNWCVQIAKGMNYLEDRRLVHRDLAARNVLVKTPQHVKITDFGLAKLLGAEEKEYHAEGGKVPIKWMALESILHRIYTHQSDVWSYGVTVWELMTFGSKPYDGIPASEISSILEKGERLPQPPICTIDVYMIMVKCWMIDADSRPKFRELIIEFSKMARDPQRYLVIQGDERMHLPSPTDSNFYRALMDEEDMDDVVDADEYLIPQQGFFSSPSTSRTPLLSSLSATSNNSTVACIDRNGLQSCPIKEDSFLQRYSSDPTGALTEDSIDDTFLPVPEYINQSVPKRPAGSVQNPVYHNQPLNPAPSRDPHYQDPHSTAVGNPEYLNTVQPTCVNSTFDSPAHWAQKGSHQISLDNPDYQQDFFPKEAKPNGIFKGSTAENAEYLRVAPQSSEFIGA

> <PDB ID(s) of Target Chain>
1IVO,1M14,1M17,1MOX,1XKK,1Z9I,2GS2,2GS6,2ITW,2ITX,2ITY,2J5E,2J5F,2J6M,2RF9,2RGP,3B2V,3BEL,3GOP,3POZ,3QWQ,3VJO,3W2O,3W2P,3W2Q,3W2R,3W2S,3W32,3W33,4G5J,4I23,4JQ7,4JQ8,4JR3,4JRV,4KRO,4LI5,4RJ4,4RJ5,4RJ6,4RJ7,4RJ8,4TKS,4UIP,4UV7,4WKQ,4WRG,4ZAU,5C8K,5C8M,5C8N,5CAL,5CAN,5CAO,5CAP,5CAQ,5CAS,5CAU,5CAV,5EDP,5EDQ,5EDR,5EM5,5EM6,5EM7,5EM8,5FED,5GNK,5HCX,5HCY,5HCZ,5HIB,5HIC,5UGB,5WB7,5WB8,5Y25,6S89,6S8A

> <UniProt (SwissProt) Recommended Name of Target Chain>
Epidermal growth factor receptor

> <UniProt (SwissProt) Entry Name of Target Chain>
EGFR_HUMAN

> <UniProt (SwissProt) Primary ID of Target Chain>
P00533

> <UniProt (SwissProt) Secondary ID(s) of Target Chain>
O00688,O00732,P06268,Q14225,Q68GS5,Q92795,Q9BZS2,Q9GZX1,Q9H2C9,Q9H3C9,Q9UMD7,Q9UMD8,Q9UMG5

> <UniProt (SwissProt) Alternative ID(s) of Target Chain>


> <UniProt (TrEMBL) Submitted Name of Target Chain>


> <UniProt (TrEMBL) Entry Name of Target Chain>


> <UniProt (TrEMBL) Primary ID of Target Chain>


> <UniProt (TrEMBL) Secondary ID(s) of Target Chain>


> <UniProt (TrEMBL) Alternative ID(s) of Target Chain>


> <training label>
4.53462

> <i_lp_mmshare_version>
54117

> <s_epik_input>
W0NIM11bQ0gyXU4oW0NIMl1bQ0gzXSlbQ0gyXVtDSDJdT2MoW2NIXTEpYyhPW0NIM10pW2NIXWMoYzEyKW5bY0hdbmMyW05IXWMzW2NIXVtjSF1jKFtjSF1bY0hdMylbTkhdQyg9TylbTkhdYzRbY0hdYyhDbCljKEYpW2NIXVtjSF00

> <s_epik_cmdline>
J2VwaWtfcHl0aG9uJywgJy1waHQnLCAnMC4xJywgJy1waCcsICc3LjQnLCAnLXRuJywgJzgnLCAnLW1hJywgJzIwMCcsICctaW1hZScsICc8aW5maWxlLm1hZT4nLCAnLW9tYWUnLCAnPG91dGZpbGUubWFlPic=

> <r_lp_tautomer_probability>
0.999978000241998

> <r_epik_Ionization_Penalty>
  0.0608

> <r_epik_Ionization_Penalty_Charging>
  0.0604

> <r_epik_Ionization_Penalty_Neutral>
  0.0004

> <r_epik_State_Penalty>
  0.0524

> <r_epik_Charging_Adjusted_Penalty>
0.112841773912698

> <i_epik_Tot_Q>
1

> <i_epik_Tot_abs_Q>
1

> <i_f3d_flags>
0

> <s_lp_Force_Field>
OPLS_2005

> <r_lp_Energy>
46.168036

> <b_lp_Chiralities_Consistent>
1

> <s_lp_Variant>
/home/bortolaa/Project/GT/mario-master/ligands/set505ligs_train.sdf:12-1

> <s_i_glide_gridfile>
struct_1_site_1

> <i_i_glide_lignum>
12

> <i_i_glide_rotatable_bonds>
13

> <r_i_docking_score>
-6.96177537501931

> <r_i_glide_ligand_efficiency>
-0.178507060897931

> <r_i_glide_ligand_efficiency_sa>
-0.605355186836638

> <r_i_glide_ligand_efficiency_ln>
-1.49280226215021

> <r_i_glide_gscore>
-7.01417537501931

> <r_i_glide_lipo>
-2.13298625296146

> <r_i_glide_hbond>
-0.586046618416764

> <r_i_glide_metal>
0

> <r_i_glide_rewards>
-0.581506749466179

> <r_i_glide_evdw>
-50.1939582824707

> <r_i_glide_ecoul>
-10.2474994659424

> <r_i_glide_erotb>
0.535444017143925

> <r_i_glide_esite>
-0.202256937303942

> <r_i_glide_emodel>
-36.9369268753345

> <r_i_glide_energy>
-60.4414577484131

> <r_i_glide_einternal>
8.67429351806641

> <i_i_glide_confnum>
121

> <i_i_glide_posenum>
364

> <r_i_glide_eff_state_penalty>
0.0524

> <PMID>
20222760

> <r_glide_shape_similarity>
0.510182917118073

> <pH>
7.5

> <s_m_subgroup_title>
505 training

> <s_m_subgroupid>
pocket_pv

> <b_m_subgroup_collapsed>
0

$$$$
/home/bortolaa/Project/GT/mario-master/ligands/set505ligs_train.sdf:183
                    3D
 Schrodinger Suite 2021-2.
 74 78  0  0  1  0            999 V2000
   26.1465    0.7948   53.3346 C   0  0  0  0  0  0
   27.4991    0.1489   53.4124 C   0  0  0  0  0  0
   28.6786    0.9024   53.6379 C   0  0  0  0  0  0
   29.9069    0.2349   53.7707 C   0  0  0  0  0  0
   29.9921   -1.1647   53.6498 C   0  0  0  0  0  0
   28.8417   -1.9129   53.3746 C   0  0  0  0  0  0
   27.6056   -1.2574   53.2516 C   0  0  0  0  0  0
   25.9878    1.9377   52.8991 O   0  0  0  0  0  0
   25.1626    0.0295   53.8467 N   0  0  0  0  0  0
   28.6895    2.6246   53.7748 Cl  0  0  0  0  0  0
   23.7754    0.1306   53.6261 C   0  0  0  0  0  0
   22.9302   -0.6627   54.4298 C   0  0  0  0  0  0
   21.5491   -0.6656   54.1928 C   0  0  0  0  0  0
   21.0101    0.0862   53.1133 C   0  0  0  0  0  0
   21.8511    0.8932   52.3339 C   0  0  0  0  0  0
   23.2305    0.9207   52.5854 C   0  0  0  0  0  0
   19.6702    0.1011   52.7333 N   0  0  0  0  0  0
   16.8056   -2.8232   53.3882 N   0  0  0  0  0  0
   18.0496   -2.8654   53.8406 C   0  0  0  0  0  0
   18.9980   -1.9632   53.6615 N   0  0  0  0  0  0
   18.6742   -0.8478   52.9804 C   0  0  0  0  0  0
   17.3463   -0.6277   52.5410 C   0  0  0  0  0  0
   16.9153    0.5496   51.8969 C   0  0  0  0  0  0
   15.5333    0.7510   51.6314 C   0  0  0  0  0  0
   14.6004   -0.2551   51.9957 C   0  0  0  0  0  0
   15.0697   -1.4720   52.5313 C   0  0  0  0  0  0
   16.4209   -1.6645   52.8205 C   0  0  0  0  0  0
   13.2515   -0.0461   51.8154 O   0  0  0  0  0  0
   12.3763   -0.5160   52.8566 C   0  0  0  0  0  0
   12.5382    0.3274   54.1396 C   0  0  0  0  0  0
   11.8315    1.7064   54.1140 C   0  0  0  0  0  0
   12.2925    2.5721   53.0189 N   0  0  2  0  0  0
   12.2503    3.9762   53.4550 C   0  0  0  0  0  0
   12.7186    4.9074   52.3111 C   0  0  0  0  0  0
   11.8889    4.7186   51.0930 N   0  3  0  0  0  0
   11.8990    3.2962   50.6794 C   0  0  0  0  0  0
   11.4031    2.4297   51.8493 C   0  0  0  0  0  0
   12.1950    5.6704   49.9961 C   0  0  0  0  0  0
   15.0461    1.9059   51.0463 O   0  0  0  0  0  0
   15.9689    2.8955   50.5992 C   0  0  0  0  0  0
   30.8046    0.8076   53.9531 H   0  0  0  0  0  0
   30.9543   -1.6453   53.7692 H   0  0  0  0  0  0
   28.9008   -2.9896   53.2797 H   0  0  0  0  0  0
   26.7376   -1.8623   53.0495 H   0  0  0  0  0  0
   25.4649   -0.8057   54.3252 H   0  0  0  0  0  0
   23.3414   -1.2631   55.2294 H   0  0  0  0  0  0
   20.9371   -1.2433   54.8623 H   0  0  0  0  0  0
   21.4584    1.4827   51.5157 H   0  0  0  0  0  0
   23.8413    1.5291   51.9398 H   0  0  0  0  0  0
   19.4267    0.8034   52.0505 H   0  0  0  0  0  0
   18.2834   -3.6652   54.5149 H   0  0  0  0  0  0
   17.6346    1.3130   51.6627 H   0  0  0  0  0  0
   14.4053   -2.2810   52.7737 H   0  0  0  0  0  0
   12.5028   -1.5749   53.0713 H   0  0  0  0  0  0
   11.3485   -0.4488   52.5111 H   0  0  0  0  0  0
   13.5899    0.4582   54.3867 H   0  0  0  0  0  0
   12.1119   -0.2388   54.9661 H   0  0  0  0  0  0
   12.0468    2.1834   55.0698 H   0  0  0  0  0  0
   10.7454    1.5951   54.0839 H   0  0  0  0  0  0
   12.8964    4.1125   54.3256 H   0  0  0  0  0  0
   11.2455    4.2447   53.7724 H   0  0  0  0  0  0
   12.6214    5.9334   52.6448 H   0  0  0  0  0  0
   13.7670    4.7237   52.0786 H   0  0  0  0  0  0
   11.2361    3.1654   49.8214 H   0  0  0  0  0  0
   12.8956    2.9979   50.3615 H   0  0  0  0  0  0
   10.3971    2.7315   52.1152 H   0  0  0  0  0  0
   11.3405    1.4058   51.4957 H   0  0  0  0  0  0
   13.2487    5.6106   49.7108 H   0  0  0  0  0  0
   11.5829    5.4520   49.1182 H   0  0  0  0  0  0
   11.9750    6.6917   50.3062 H   0  0  0  0  0  0
   15.4296    3.7094   50.1231 H   0  0  0  0  0  0
   16.5301    3.3142   51.4338 H   0  0  0  0  0  0
   16.6683    2.4855   49.8658 H   0  0  0  0  0  0
   10.9054    4.8631   51.3760 H   0  0  0  0  0  0
  1  2  1  0  0  0
  1  8  2  0  0  0
  1  9  1  0  0  0
  2  3  1  0  0  0
  2  7  2  0  0  0
  3  4  2  0  0  0
  3 10  1  0  0  0
  4  5  1  0  0  0
  4 41  1  0  0  0
  5  6  2  0  0  0
  5 42  1  0  0  0
  6  7  1  0  0  0
  6 43  1  0  0  0
  7 44  1  0  0  0
  9 11  1  0  0  0
  9 45  1  0  0  0
 11 12  1  0  0  0
 11 16  2  0  0  0
 12 13  2  0  0  0
 12 46  1  0  0  0
 13 14  1  0  0  0
 13 47  1  0  0  0
 14 15  2  0  0  0
 14 17  1  0  0  0
 15 16  1  0  0  0
 15 48  1  0  0  0
 16 49  1  0  0  0
 17 21  1  0  0  0
 17 50  1  0  0  0
 18 19  1  0  0  0
 18 27  2  0  0  0
 19 20  2  0  0  0
 19 51  1  0  0  0
 20 21  1  0  0  0
 21 22  2  0  0  0
 22 23  1  0  0  0
 22 27  1  0  0  0
 23 24  2  0  0  0
 23 52  1  0  0  0
 24 25  1  0  0  0
 24 39  1  0  0  0
 25 26  2  0  0  0
 25 28  1  0  0  0
 26 27  1  0  0  0
 26 53  1  0  0  0
 28 29  1  0  0  0
 29 30  1  0  0  0
 29 54  1  0  0  0
 29 55  1  0  0  0
 30 31  1  0  0  0
 30 56  1  0  0  0
 30 57  1  0  0  0
 31 32  1  0  0  0
 31 58  1  0  0  0
 31 59  1  0  0  0
 32 33  1  0  0  0
 32 37  1  0  0  0
 33 34  1  0  0  0
 33 60  1  0  0  0
 33 61  1  0  0  0
 34 35  1  0  0  0
 34 62  1  0  0  0
 34 63  1  0  0  0
 35 36  1  0  0  0
 35 38  1  0  0  0
 35 74  1  0  0  0
 36 37  1  0  0  0
 36 64  1  0  0  0
 36 65  1  0  0  0
 37 66  1  0  0  0
 37 67  1  0  0  0
 38 68  1  0  0  0
 38 69  1  0  0  0
 38 70  1  0  0  0
 39 40  1  0  0  0
 40 71  1  0  0  0
 40 72  1  0  0  0
 40 73  1  0  0  0
M  CHG  1  35   1
M  END
> <s_m_entry_id>
385

> <s_m_entry_name>
pocket_pv.196

> <s_m_Source_Path>
/home/bortolaa/Project/GT/mario-master/docking/set505protein_struct_1_site_1_set505ligs_train

> <s_m_Source_File>
pocket_pv.maegz

> <i_m_Source_File_Index>
196

> <From>
www.bindingDB.org

> <BindingDB Reactant_set_id>
50463840

> <Ligand InChI>
InChI=1S/C30H33ClN6O3/c1-36-13-15-37(16-14-36)12-5-17-40-28-19-26-24(18-27(28)39-2)29(33-20-32-26)34-21-8-10-22(11-9-21)35-30(38)23-6-3-4-7-25(23)31/h3-4,6-11,18-20H,5,12-17H2,1-2H3,(H,35,38)(H,32,33,34)

> <Ligand InChI Key>
VDVPXYDBILKOEA-UHFFFAOYSA-N

> <BindingDB MonomerID>
50144600

> <BindingDB Ligand Name>
CHEMBL3759190

> <Target Name Assigned by Curator or DataSource>
Epidermal growth factor receptor

> <Target Source Organism According to Curator or DataSource>
Homo sapiens

> <Ki (nM)>


> <Kd (nM)>


> <EC50 (nM)>


> <kon (M-1-s-1)>


> <koff (s-1)>


> <pH>


> <Temp C>


> <Curation/DataSource>
ChEMBL

> <Article DOI>
10.1016/j.ejmech.2015.12.032

> <PubChem AID>


> <Patent Number>


> <Authors>
Zhang, HQ; Gong, FH; Li, CG; Zhang, C; Wang, YJ; Xu, YG; Sun, LP

> <Institution>
China Pharmaceutical University

> <Link to Ligand in BindingDB>
http://www.bindingdb.org/bind/chemsearch/marvin/MolStructure.jsp?monomerid=50144600

> <Link to Ligand-Target Pair in BindingDB>
http://www.bindingdb.org/jsp/dbsearch/PrimarySearch_ki.jsp?energyterm=kJ/mole&tag=r21&monomerid=50144600&enzyme=Epidermal+growth+factor+receptor&column=ki&startPg=0&Increment=50&submit=Search

> <Ligand HET ID in PDB>


> <PDB ID(s) for Ligand-Target Complex>


> <PubChem CID>
3009561

> <PubChem SID>
85414790

> <ChEBI ID of Ligand>


> <ChEMBL ID of Ligand>
CHEMBL3759190

> <DrugBank ID of Ligand>


> <IUPHAR_GRAC ID of Ligand>


> <KEGG ID of Ligand>


> <ZINC ID of Ligand>


> <Number of Protein Chains in Target (>
1

> <BindingDB Target Chain Sequence>
MRPSGTAGAALLALLAALCPASRALEEKKVCQGTSNKLTQLGTFEDHFLSLQRMFNNCEVVLGNLEITYVQRNYDLSFLKTIQEVAGYVLIALNTVERIPLENLQIIRGNMYYENSYALAVLSNYDANKTGLKELPMRNLQEILHGAVRFSNNPALCNVESIQWRDIVSSDFLSNMSMDFQNHLGSCQKCDPSCPNGSCWGAGEENCQKLTKIICAQQCSGRCRGKSPSDCCHNQCAAGCTGPRESDCLVCRKFRDEATCKDTCPPLMLYNPTTYQMDVNPEGKYSFGATCVKKCPRNYVVTDHGSCVRACGADSYEMEEDGVRKCKKCEGPCRKVCNGIGIGEFKDSLSINATNIKHFKNCTSISGDLHILPVAFRGDSFTHTPPLDPQELDILKTVKEITGFLLIQAWPENRTDLHAFENLEIIRGRTKQHGQFSLAVVSLNITSLGLRSLKEISDGDVIISGNKNLCYANTINWKKLFGTSGQKTKIISNRGENSCKATGQVCHALCSPEGCWGPEPRDCVSCRNVSRGRECVDKCNLLEGEPREFVENSECIQCHPECLPQAMNITCTGRGPDNCIQCAHYIDGPHCVKTCPAGVMGENNTLVWKYADAGHVCHLCHPNCTYGCTGPGLEGCPTNGPKIPSIATGMVGALLLLLVVALGIGLFMRRRHIVRKRTLRRLLQERELVEPLTPSGEAPNQALLRILKETEFKKIKVLGSGAFGTVYKGLWIPEGEKVKIPVAIKELREATSPKANKEILDEAYVMASVDNPHVCRLLGICLTSTVQLITQLMPFGCLLDYVREHKDNIGSQYLLNWCVQIAKGMNYLEDRRLVHRDLAARNVLVKTPQHVKITDFGLAKLLGAEEKEYHAEGGKVPIKWMALESILHRIYTHQSDVWSYGVTVWELMTFGSKPYDGIPASEISSILEKGERLPQPPICTIDVYMIMVKCWMIDADSRPKFRELIIEFSKMARDPQRYLVIQGDERMHLPSPTDSNFYRALMDEEDMDDVVDADEYLIPQQGFFSSPSTSRTPLLSSLSATSNNSTVACIDRNGLQSCPIKEDSFLQRYSSDPTGALTEDSIDDTFLPVPEYINQSVPKRPAGSVQNPVYHNQPLNPAPSRDPHYQDPHSTAVGNPEYLNTVQPTCVNSTFDSPAHWAQKGSHQISLDNPDYQQDFFPKEAKPNGIFKGSTAENAEYLRVAPQSSEFIGA

> <PDB ID(s) of Target Chain>
1IVO,1M14,1M17,1MOX,1XKK,1Z9I,2GS2,2GS6,2ITW,2ITX,2ITY,2J5E,2J5F,2J6M,2RF9,2RGP,3B2V,3BEL,3GOP,3POZ,3QWQ,3VJO,3W2O,3W2P,3W2Q,3W2R,3W2S,3W32,3W33,4G5J,4I23,4JQ7,4JQ8,4JR3,4JRV,4KRO,4LI5,4RJ4,4RJ5,4RJ6,4RJ7,4RJ8,4TKS,4UIP,4UV7,4WKQ,4WRG,4ZAU,5C8K,5C8M,5C8N,5CAL,5CAN,5CAO,5CAP,5CAQ,5CAS,5CAU,5CAV,5EDP,5EDQ,5EDR,5EM5,5EM6,5EM7,5EM8,5FED,5GNK,5HCX,5HCY,5HCZ,5HIB,5HIC,5UGB,5WB7,5WB8,5Y25,6S89,6S8A

> <UniProt (SwissProt) Recommended Name of Target Chain>
Epidermal growth factor receptor

> <UniProt (SwissProt) Entry Name of Target Chain>
EGFR_HUMAN

> <UniProt (SwissProt) Primary ID of Target Chain>
P00533

> <UniProt (SwissProt) Secondary ID(s) of Target Chain>
O00688,O00732,P06268,Q14225,Q68GS5,Q92795,Q9BZS2,Q9GZX1,Q9H2C9,Q9H3C9,Q9UMD7,Q9UMD8,Q9UMG5

> <UniProt (SwissProt) Alternative ID(s) of Target Chain>


> <UniProt (TrEMBL) Submitted Name of Target Chain>


> <UniProt (TrEMBL) Entry Name of Target Chain>


> <UniProt (TrEMBL) Primary ID of Target Chain>


> <UniProt (TrEMBL) Secondary ID(s) of Target Chain>


> <UniProt (TrEMBL) Alternative ID(s) of Target Chain>


> <training label>
7.69897

> <i_lp_mmshare_version>
54117

> <s_epik_input>
W2NIXTFbY0hdW2NIXVtjSF1jKENsKWMxQyg9TylbTkhdYzJbY0hdW2NIXWMoW2NIXVtjSF0yKVtOSF1jM25bY0hdbmMoYzM0KVtjSF1jKGMoW2NIXTQpT1tDSDNdKU9bQ0gyXVtDSDJdW0NIMl1ONVtDSDJdW0NIMl1OKFtDSDNdKVtDSDJdW0NIMl01

> <s_epik_cmdline>
J2VwaWtfcHl0aG9uJywgJy1waHQnLCAnMC4xJywgJy1waCcsICc3LjQnLCAnLXRuJywgJzgnLCAnLW1hJywgJzIwMCcsICctaW1hZScsICc8aW5maWxlLm1hZT4nLCAnLW9tYWUnLCAnPG91dGZpbGUubWFlPic=

> <r_lp_tautomer_probability>
0.999978000241998

> <r_epik_Ionization_Penalty>
  0.0669

> <r_epik_Ionization_Penalty_Charging>
  0.0659

> <r_epik_Ionization_Penalty_Neutral>
  0.0010

> <r_epik_State_Penalty>
  0.1437

> <r_epik_Charging_Adjusted_Penalty>
0.209599309145144

> <i_epik_Tot_Q>
1

> <i_epik_Tot_abs_Q>
1

> <i_f3d_flags>
0

> <s_lp_Force_Field>
OPLS_2005

> <r_lp_Energy>
54.564931

> <b_lp_Chiralities_Consistent>
1

> <s_lp_Variant>
/home/bortolaa/Project/GT/mario-master/ligands/set505ligs_train.sdf:183-1

> <s_i_glide_gridfile>
struct_1_site_1

> <i_i_glide_lignum>
207

> <i_i_glide_rotatable_bonds>
11

> <r_i_docking_score>
-6.95624015159731

> <r_i_glide_ligand_efficiency>
-0.173906003789933

> <r_i_glide_ligand_efficiency_sa>
-0.594750166195582

> <r_i_glide_ligand_efficiency_ln>
-1.48356131132653

> <r_i_glide_gscore>
-7.09994015159731

> <r_i_glide_lipo>
-3.37531655544794

> <r_i_glide_hbond>
-0.195786027879794

> <r_i_glide_metal>
0

> <r_i_glide_rewards>
-0.380569144788533

> <r_i_glide_evdw>
-52.3414916992188

> <r_i_glide_ecoul>
-6.71864891052246

> <r_i_glide_erotb>
0.576603498058263

> <r_i_glide_esite>
-0.1

> <r_i_glide_emodel>
-34.2761134909609

> <r_i_glide_energy>
-59.0601406097412

> <r_i_glide_einternal>
13.8694505691528

> <i_i_glide_confnum>
11

> <i_i_glide_posenum>
15

> <r_i_glide_eff_state_penalty>
0.1437

> <IC50 (nM)>
20

> <PMID>
26826581

> <r_glide_shape_similarity>
0.523025989532471

> <s_m_subgroup_title>
505 training

> <s_m_subgroupid>
pocket_pv

> <b_m_subgroup_collapsed>
0

$$$$
/home/bortolaa/Project/GT/mario-master/ligands/set505ligs_train.sdf:203
                    3D
 Schrodinger Suite 2021-2.
 63 65  0  0  1  0            999 V2000
   20.0737    0.4264   52.1744 C   0  0  0  0  0  0
   19.3487   -0.5679   52.8865 C   0  0  0  0  0  0
   19.9466   -1.3189   53.9028 C   0  0  0  0  0  0
   21.4371    0.6291   52.5106 C   0  0  0  0  0  0
   22.0614   -0.1714   53.5119 C   0  0  0  0  0  0
   21.2990   -1.1403   54.2232 C   0  0  0  0  0  0
   21.8575   -1.9098   55.1806 N   0  0  0  0  0  0
   23.1476   -1.7235   55.4301 C   0  0  0  0  0  0
   23.9613   -0.8676   54.8270 N   0  0  0  0  0  0
   23.4385   -0.0777   53.8623 C   0  0  0  0  0  0
   19.5093    1.2055   51.1786 O   0  0  0  0  0  0
   24.2822    0.8646   53.2591 N   0  0  0  0  0  0
   25.6800    0.9552   53.3348 C   0  0  0  0  0  0
   26.5125   -0.1898   53.3348 C   0  0  0  0  0  0
   27.9132   -0.0532   53.3843 C   0  0  0  0  0  0
   28.5036    1.2284   53.4418 C   0  0  0  0  0  0
   27.6766    2.3706   53.4285 C   0  0  0  0  0  0
   26.2774    2.2374   53.3727 C   0  0  0  0  0  0
   28.7406   -1.2462   53.3636 C   0  0  0  0  0  0
   29.3701   -2.2895   53.3649 C   0  0  0  0  0  0
   18.1930    0.8411   50.7048 C   0  0  0  0  0  0
   17.0528    1.1404   51.7217 C   0  0  0  0  0  0
   15.8671    0.1397   51.7384 C   0  0  0  0  0  0
   14.9957    0.3108   53.0095 C   0  0  0  0  0  0
   13.6000    0.0656   52.8294 O   0  0  0  0  0  0
   12.6408    1.1008   51.9933 P   0  0  1  0  0  0
   11.0573    0.4525   52.2470 N   0  0  0  0  0  0
   12.6620    2.5150   52.9533 N   0  0  0  0  0  0
   13.0377    1.3118   50.5678 O   0  0  0  0  0  0
   10.2466    0.7798   53.4447 C   0  0  0  0  0  0
   10.6320   -0.7732   51.5316 C   0  0  0  0  0  0
   10.3805   -0.5526   50.0180 C   0  0  0  0  0  0
    9.0336    0.5900   49.7406 Cl  0  0  0  0  0  0
   10.8922    0.2628   54.7531 C   0  0  0  0  0  0
    9.8698    0.6579   56.1683 Cl  0  0  0  0  0  0
   18.3257   -0.8255   52.6674 H   0  0  0  0  0  0
   19.3693   -2.0587   54.4347 H   0  0  0  0  0  0
   21.9988    1.3731   51.9645 H   0  0  0  0  0  0
   23.5925   -2.3658   56.1769 H   0  0  0  0  0  0
   23.8147    1.6381   52.8097 H   0  0  0  0  0  0
   26.0743   -1.1775   53.2742 H   0  0  0  0  0  0
   29.5785    1.3449   53.4720 H   0  0  0  0  0  0
   28.1148    3.3591   53.4577 H   0  0  0  0  0  0
   25.6682    3.1318   53.3676 H   0  0  0  0  0  0
   29.8885   -3.2187   53.3663 H   0  0  0  0  0  0
   18.0030    1.3809   49.7794 H   0  0  0  0  0  0
   18.1843   -0.2110   50.4228 H   0  0  0  0  0  0
   17.4722    1.1438   52.7161 H   0  0  0  0  0  0
   16.6792    2.1566   51.5646 H   0  0  0  0  0  0
   15.2847    0.2902   50.8312 H   0  0  0  0  0  0
   16.2173   -0.8931   51.6845 H   0  0  0  0  0  0
   15.3752   -0.3401   53.7971 H   0  0  0  0  0  0
   15.0931    1.3298   53.3821 H   0  0  0  0  0  0
   13.4938    3.0995   52.8960 H   0  0  0  0  0  0
   11.8177    3.0936   52.9243 H   0  0  0  0  0  0
   10.0804    1.8624   53.4971 H   0  0  0  0  0  0
    9.2433    0.3626   53.3537 H   0  0  0  0  0  0
   11.3945   -1.5429   51.6553 H   0  0  0  0  0  0
    9.7229   -1.1890   51.9736 H   0  0  0  0  0  0
   11.2563   -0.1704   49.4957 H   0  0  0  0  0  0
   10.1080   -1.4904   49.5435 H   0  0  0  0  0  0
   11.0214   -0.8202   54.7271 H   0  0  0  0  0  0
   11.8704    0.7181   54.9273 H   0  0  0  0  0  0
  1  2  2  0  0  0
  1  4  1  0  0  0
  1 11  1  0  0  0
  2  3  1  0  0  0
  2 36  1  0  0  0
  3  6  2  0  0  0
  3 37  1  0  0  0
  4  5  2  0  0  0
  4 38  1  0  0  0
  5  6  1  0  0  0
  5 10  1  0  0  0
  6  7  1  0  0  0
  7  8  2  0  0  0
  8  9  1  0  0  0
  8 39  1  0  0  0
  9 10  2  0  0  0
 10 12  1  0  0  0
 11 21  1  0  0  0
 12 13  1  0  0  0
 12 40  1  0  0  0
 13 14  2  0  0  0
 13 18  1  0  0  0
 14 15  1  0  0  0
 14 41  1  0  0  0
 15 16  2  0  0  0
 15 19  1  0  0  0
 16 17  1  0  0  0
 16 42  1  0  0  0
 17 18  2  0  0  0
 17 43  1  0  0  0
 18 44  1  0  0  0
 19 20  3  0  0  0
 20 45  1  0  0  0
 21 22  1  0  0  0
 21 46  1  0  0  0
 21 47  1  0  0  0
 22 23  1  0  0  0
 22 48  1  0  0  0
 22 49  1  0  0  0
 23 24  1  0  0  0
 23 50  1  0  0  0
 23 51  1  0  0  0
 24 25  1  0  0  0
 24 52  1  0  0  0
 24 53  1  0  0  0
 25 26  1  0  0  0
 26 27  1  0  0  0
 26 28  1  0  0  0
 26 29  2  0  0  0
 27 30  1  0  0  0
 27 31  1  0  0  0
 28 54  1  0  0  0
 28 55  1  0  0  0
 30 34  1  0  0  0
 30 56  1  0  0  0
 30 57  1  0  0  0
 31 32  1  0  0  0
 31 58  1  0  0  0
 31 59  1  0  0  0
 32 33  1  0  0  0
 32 60  1  0  0  0
 32 61  1  0  0  0
 34 35  1  0  0  0
 34 62  1  0  0  0
 34 63  1  0  0  0
M  END
> <s_m_entry_id>
386

> <s_m_entry_name>
pocket_pv.197

> <s_m_Source_Path>
/home/bortolaa/Project/GT/mario-master/docking/set505protein_struct_1_site_1_set505ligs_train

> <s_m_Source_File>
pocket_pv.maegz

> <i_m_Source_File_Index>
197

> <From>
www.bindingDB.org

> <BindingDB Reactant_set_id>
50679584

> <Ligand InChI>
InChI=1S/C24H28Cl2N5O3P/c1-2-19-6-5-7-20(16-19)30-24-22-17-21(8-9-23(22)28-18-29-24)33-14-3-4-15-34-35(27,32)31(12-10-25)13-11-26/h1,5-9,16-18H,3-4,10-15H2,(H2,27,32)(H,28,29,30)

> <Ligand InChI Key>
NWQZWJNXAGKRAC-UHFFFAOYSA-N

> <BindingDB MonomerID>
50230422

> <BindingDB Ligand Name>
CHEMBL4091626

> <Target Name Assigned by Curator or DataSource>
Epidermal growth factor receptor

> <Target Source Organism According to Curator or DataSource>
Homo sapiens

> <Ki (nM)>


> <Kd (nM)>


> <EC50 (nM)>


> <kon (M-1-s-1)>


> <koff (s-1)>


> <pH>


> <Temp C>


> <Curation/DataSource>
ChEMBL

> <Article DOI>
10.1016/j.ejmech.2016.12.055

> <PubChem AID>


> <Patent Number>


> <Authors>
Lin, S; Li, Y; Zheng, Y; Luo, L; Sun, Q; Ge, Z; Cheng, T; Li, R

> <Institution>
Peking University

> <Link to Ligand in BindingDB>
http://www.bindingdb.org/bind/chemsearch/marvin/MolStructure.jsp?monomerid=50230422

> <Link to Ligand-Target Pair in BindingDB>
http://www.bindingdb.org/jsp/dbsearch/PrimarySearch_ki.jsp?energyterm=kJ/mole&tag=r21&monomerid=50230422&enzyme=Epidermal+growth+factor+receptor&column=ki&startPg=0&Increment=50&submit=Search

> <Ligand HET ID in PDB>


> <PDB ID(s) for Ligand-Target Complex>


> <PubChem CID>
137653430

> <PubChem SID>
383543110

> <ChEBI ID of Ligand>


> <ChEMBL ID of Ligand>
CHEMBL4091626

> <DrugBank ID of Ligand>


> <IUPHAR_GRAC ID of Ligand>


> <KEGG ID of Ligand>


> <ZINC ID of Ligand>


> <Number of Protein Chains in Target (>
1

> <BindingDB Target Chain Sequence>
MRPSGTAGAALLALLAALCPASRALEEKKVCQGTSNKLTQLGTFEDHFLSLQRMFNNCEVVLGNLEITYVQRNYDLSFLKTIQEVAGYVLIALNTVERIPLENLQIIRGNMYYENSYALAVLSNYDANKTGLKELPMRNLQEILHGAVRFSNNPALCNVESIQWRDIVSSDFLSNMSMDFQNHLGSCQKCDPSCPNGSCWGAGEENCQKLTKIICAQQCSGRCRGKSPSDCCHNQCAAGCTGPRESDCLVCRKFRDEATCKDTCPPLMLYNPTTYQMDVNPEGKYSFGATCVKKCPRNYVVTDHGSCVRACGADSYEMEEDGVRKCKKCEGPCRKVCNGIGIGEFKDSLSINATNIKHFKNCTSISGDLHILPVAFRGDSFTHTPPLDPQELDILKTVKEITGFLLIQAWPENRTDLHAFENLEIIRGRTKQHGQFSLAVVSLNITSLGLRSLKEISDGDVIISGNKNLCYANTINWKKLFGTSGQKTKIISNRGENSCKATGQVCHALCSPEGCWGPEPRDCVSCRNVSRGRECVDKCNLLEGEPREFVENSECIQCHPECLPQAMNITCTGRGPDNCIQCAHYIDGPHCVKTCPAGVMGENNTLVWKYADAGHVCHLCHPNCTYGCTGPGLEGCPTNGPKIPSIATGMVGALLLLLVVALGIGLFMRRRHIVRKRTLRRLLQERELVEPLTPSGEAPNQALLRILKETEFKKIKVLGSGAFGTVYKGLWIPEGEKVKIPVAIKELREATSPKANKEILDEAYVMASVDNPHVCRLLGICLTSTVQLITQLMPFGCLLDYVREHKDNIGSQYLLNWCVQIAKGMNYLEDRRLVHRDLAARNVLVKTPQHVKITDFGLAKLLGAEEKEYHAEGGKVPIKWMALESILHRIYTHQSDVWSYGVTVWELMTFGSKPYDGIPASEISSILEKGERLPQPPICTIDVYMIMVKCWMIDADSRPKFRELIIEFSKMARDPQRYLVIQGDERMHLPSPTDSNFYRALMDEEDMDDVVDADEYLIPQQGFFSSPSTSRTPLLSSLSATSNNSTVACIDRNGLQSCPIKEDSFLQRYSSDPTGALTEDSIDDTFLPVPEYINQSVPKRPAGSVQNPVYHNQPLNPAPSRDPHYQDPHSTAVGNPEYLNTVQPTCVNSTFDSPAHWAQKGSHQISLDNPDYQQDFFPKEAKPNGIFKGSTAENAEYLRVAPQSSEFIGA

> <PDB ID(s) of Target Chain>
1IVO,1M14,1M17,1MOX,1XKK,1Z9I,2GS2,2GS6,2ITW,2ITX,2ITY,2J5E,2J5F,2J6M,2RF9,2RGP,3B2V,3BEL,3GOP,3POZ,3QWQ,3VJO,3W2O,3W2P,3W2Q,3W2R,3W2S,3W32,3W33,4G5J,4I23,4JQ7,4JQ8,4JR3,4JRV,4KRO,4LI5,4RJ4,4RJ5,4RJ6,4RJ7,4RJ8,4TKS,4UIP,4UV7,4WKQ,4WRG,4ZAU,5C8K,5C8M,5C8N,5CAL,5CAN,5CAO,5CAP,5CAQ,5CAS,5CAU,5CAV,5EDP,5EDQ,5EDR,5EM5,5EM6,5EM7,5EM8,5FED,5GNK,5HCX,5HCY,5HCZ,5HIB,5HIC,5UGB,5WB7,5WB8,5Y25,6S89,6S8A

> <UniProt (SwissProt) Recommended Name of Target Chain>
Epidermal growth factor receptor

> <UniProt (SwissProt) Entry Name of Target Chain>
EGFR_HUMAN

> <UniProt (SwissProt) Primary ID of Target Chain>
P00533

> <UniProt (SwissProt) Secondary ID(s) of Target Chain>
O00688,O00732,P06268,Q14225,Q68GS5,Q92795,Q9BZS2,Q9GZX1,Q9H2C9,Q9H3C9,Q9UMD7,Q9UMD8,Q9UMG5

> <UniProt (SwissProt) Alternative ID(s) of Target Chain>


> <UniProt (TrEMBL) Submitted Name of Target Chain>


> <UniProt (TrEMBL) Entry Name of Target Chain>


> <UniProt (TrEMBL) Primary ID of Target Chain>


> <UniProt (TrEMBL) Secondary ID(s) of Target Chain>


> <UniProt (TrEMBL) Alternative ID(s) of Target Chain>


> <training label>
7.95861

> <i_lp_mmshare_version>
54117

> <s_epik_input>
Q2xbQ0gyXVtDSDJdTihbQ0gyXVtDSDJdQ2wpW1BAQF0oPU8pKFtOSDJdKU9bQ0gyXVtDSDJdW0NIMl1bQ0gyXU9jKFtjSF0xKVtjSF1bY0hdYyhjMTIpbltjSF1uYzJbTkhdYzNbY0hdYyhDI1tDSF0pW2NIXVtjSF1bY0hdMw==

> <s_epik_cmdline>
J2VwaWtfcHl0aG9uJywgJy1waHQnLCAnMC4xJywgJy1waCcsICc3LjQnLCAnLXRuJywgJzgnLCAnLW1hJywgJzIwMCcsICctaW1hZScsICc8aW5maWxlLm1hZT4nLCAnLW9tYWUnLCAnPG91dGZpbGUubWFlPic=

> <r_lp_tautomer_probability>
1

> <r_epik_Ionization_Penalty>
  0.0004

> <r_epik_Ionization_Penalty_Charging>
  0.0000

> <r_epik_Ionization_Penalty_Neutral>
  0.0004

> <r_epik_State_Penalty>
  0.0000

> <r_epik_Charging_Adjusted_Penalty>
0

> <i_epik_Tot_Q>
0

> <i_epik_Tot_abs_Q>
0

> <i_f3d_flags>
0

> <s_lp_Force_Field>
OPLS_2005

> <r_lp_Energy>
-7.379854

> <b_lp_Chiralities_Consistent>
1

> <s_lp_Variant>
/home/bortolaa/Project/GT/mario-master/ligands/set505ligs_train.sdf:203-2

> <s_i_glide_gridfile>
struct_1_site_1

> <i_i_glide_lignum>
228

> <i_i_glide_rotatable_bonds>
15

> <r_i_docking_score>
-6.93120863541341

> <r_i_glide_ligand_efficiency>
-0.198034532440383

> <r_i_glide_ligand_efficiency_sa>
-0.647784086551987

> <r_i_glide_ligand_efficiency_ln>
-1.52155412536077

> <r_i_glide_gscore>
-6.93120863541341

> <r_i_glide_lipo>
-3.23394281936345

> <r_i_glide_hbond>
-0.32

> <r_i_glide_metal>
0

> <r_i_glide_rewards>
-1.16170353084537

> <r_i_glide_evdw>
-46.4344635009766

> <r_i_glide_ecoul>
-5.18793964385986

> <r_i_glide_erotb>
0.933051138628063

> <r_i_glide_esite>
-0.0486993022048403

> <r_i_glide_emodel>
-45.2020744230081

> <r_i_glide_energy>
-51.6224031448364

> <r_i_glide_einternal>
7.91498756408691

> <i_i_glide_confnum>
490

> <i_i_glide_posenum>
11

> <r_i_glide_eff_state_penalty>
0

> <IC50 (nM)>
11

> <PMID>
28092860

> <r_glide_shape_similarity>
0.725761473178864

> <s_m_subgroup_title>
505 training

> <s_m_subgroupid>
pocket_pv

> <b_m_subgroup_collapsed>
0

$$$$
BindingDB_50308821_mol_1
                    3D
 Schrodinger Suite 2021-2.
 49 51  0  0  1  0            999 V2000
   20.1803    0.5314   52.1389 C   0  0  0  0  0  0
   19.3497   -0.3702   52.8222 C   0  0  0  0  0  0
   19.9065   -1.1951   53.8313 C   0  0  0  0  0  0
   21.5247    0.6498   52.5157 C   0  0  0  0  0  0
   22.0762   -0.1719   53.5081 C   0  0  0  0  0  0
   21.2691   -1.1118   54.1792 C   0  0  0  0  0  0
   21.8001   -1.8947   55.1368 N   0  0  0  0  0  0
   23.0920   -1.7397   55.4092 C   0  0  0  0  0  0
   23.9369   -0.9025   54.8246 N   0  0  0  0  0  0
   23.4379   -0.1004   53.8699 C   0  0  0  0  0  0
   24.2876    0.8462   53.2783 N   0  0  0  0  0  0
   25.6797    0.9465   53.3427 C   0  0  0  0  0  0
   26.5035   -0.1937   53.3314 C   0  0  0  0  0  0
   27.8949   -0.0649   53.3862 C   0  0  0  0  0  0
   28.4701    1.2053   53.4568 C   0  0  0  0  0  0
   27.6651    2.3511   53.4284 C   0  0  0  0  0  0
   26.2700    2.2220   53.3677 C   0  0  0  0  0  0
   28.8877   -1.4673   53.3751 Cl  0  0  0  0  0  0
   29.8038    1.3152   53.5697 F   0  0  0  0  0  0
   18.0314   -0.3774   52.4338 O   0  0  0  0  0  0
   17.1123   -1.1296   53.1945 C   0  0  0  0  0  0
   19.6604    1.3254   51.1475 O   0  0  0  0  0  0
   20.4072    1.4021   49.9357 C   0  0  0  0  0  0
   20.1476    2.7189   49.2116 C   0  0  0  0  0  0
   18.8213    2.7774   48.4666 C   0  0  0  0  0  0
   17.6169    2.8075   49.4061 C   0  0  0  0  0  0
   16.2877    3.0483   48.7246 C   0  0  0  0  0  0
   16.0815    3.2177   47.4066 C   0  0  0  0  0  0
   19.2937   -1.9009   54.3694 H   0  0  0  0  0  0
   22.1414    1.3919   52.0350 H   0  0  0  0  0  0
   23.5005   -2.3785   56.1781 H   0  0  0  0  0  0
   23.8215    1.6209   52.8378 H   0  0  0  0  0  0
   26.0706   -1.1814   53.2738 H   0  0  0  0  0  0
   28.1135    3.3336   53.4717 H   0  0  0  0  0  0
   25.6607    3.1153   53.3568 H   0  0  0  0  0  0
   16.1015   -0.9372   52.8354 H   0  0  0  0  0  0
   17.3013   -2.1991   53.0942 H   0  0  0  0  0  0
   17.1430   -0.8632   54.2517 H   0  0  0  0  0  0
   20.1222    0.5696   49.2919 H   0  0  0  0  0  0
   21.4828    1.3071   50.0654 H   0  0  0  0  0  0
   20.9397    2.8567   48.4742 H   0  0  0  0  0  0
   20.2371    3.5591   49.9002 H   0  0  0  0  0  0
   18.7429    1.9347   47.7806 H   0  0  0  0  0  0
   18.8250    3.6780   47.8516 H   0  0  0  0  0  0
   17.7502    3.5737   50.1736 H   0  0  0  0  0  0
   17.5313    1.8524   49.9262 H   0  0  0  0  0  0
   15.4314    3.0786   49.3859 H   0  0  0  0  0  0
   16.8847    3.2005   46.6825 H   0  0  0  0  0  0
   15.0825    3.3807   47.0295 H   0  0  0  0  0  0
  1  2  2  0  0  0
  1  4  1  0  0  0
  1 22  1  0  0  0
  2  3  1  0  0  0
  2 20  1  0  0  0
  3  6  2  0  0  0
  3 29  1  0  0  0
  4  5  2  0  0  0
  4 30  1  0  0  0
  5  6  1  0  0  0
  5 10  1  0  0  0
  6  7  1  0  0  0
  7  8  2  0  0  0
  8  9  1  0  0  0
  8 31  1  0  0  0
  9 10  2  0  0  0
 10 11  1  0  0  0
 11 12  1  0  0  0
 11 32  1  0  0  0
 12 13  1  0  0  0
 12 17  2  0  0  0
 13 14  2  0  0  0
 13 33  1  0  0  0
 14 15  1  0  0  0
 14 18  1  0  0  0
 15 16  2  0  0  0
 15 19  1  0  0  0
 16 17  1  0  0  0
 16 34  1  0  0  0
 17 35  1  0  0  0
 20 21  1  0  0  0
 21 36  1  0  0  0
 21 37  1  0  0  0
 21 38  1  0  0  0
 22 23  1  0  0  0
 23 24  1  0  0  0
 23 39  1  0  0  0
 23 40  1  0  0  0
 24 25  1  0  0  0
 24 41  1  0  0  0
 24 42  1  0  0  0
 25 26  1  0  0  0
 25 43  1  0  0  0
 25 44  1  0  0  0
 26 27  1  0  0  0
 26 45  1  0  0  0
 26 46  1  0  0  0
 27 28  2  0  0  0
 27 47  1  0  0  0
 28 48  1  0  0  0
 28 49  1  0  0  0
M  END
> <s_m_entry_id>
387

> <s_m_entry_name>
pocket_pv.198

> <s_m_Source_Path>
/home/bortolaa/Project/GT/mario-master/docking/set505protein_struct_1_site_1_set505ligs_train

> <s_m_Source_File>
pocket_pv.maegz

> <i_m_Source_File_Index>
198

> <From>
www.bindingDB.org

> <BindingDB Reactant_set_id>
50554724

> <Ligand InChI>
InChI=1S/C21H21ClFN3O2/c1-3-4-5-6-9-28-20-11-15-18(12-19(20)27-2)24-13-25-21(15)26-14-7-8-17(23)16(22)10-14/h3,7-8,10-13H,1,4-6,9H2,2H3,(H,24,25,26)

> <Ligand InChI Key>
PJCLYYMFEIOAPR-UHFFFAOYSA-N

> <BindingDB MonomerID>
50308821

> <BindingDB Ligand Name>
4-(3'-Chloro-4'-fluorophenylamino)-6-(hex-5-enyloxy)-7-methoxyquinazoline::CHEMBL589826

> <Target Name Assigned by Curator or DataSource>
Epidermal growth factor receptor

> <Target Source Organism According to Curator or DataSource>
Homo sapiens

> <Ki (nM)>


> <Kd (nM)>


> <EC50 (nM)>


> <kon (M-1-s-1)>


> <koff (s-1)>


> <pH>


> <Temp C>


> <Curation/DataSource>
ChEMBL

> <Article DOI>
10.1016/j.bmc.2009.11.035

> <PubChem AID>


> <Patent Number>


> <Authors>
Ban, HS; Tanaka, Y; Nabeyama, W; Hatori, M; Nakamura, H

> <Institution>
Gakushuin University

> <Link to Ligand in BindingDB>
http://www.bindingdb.org/bind/chemsearch/marvin/MolStructure.jsp?monomerid=50308821

> <Link to Ligand-Target Pair in BindingDB>
http://www.bindingdb.org/jsp/dbsearch/PrimarySearch_ki.jsp?energyterm=kJ/mole&tag=r21&monomerid=50308821&enzyme=Epidermal+growth+factor+receptor&column=ki&startPg=0&Increment=50&submit=Search

> <Ligand HET ID in PDB>


> <PDB ID(s) for Ligand-Target Complex>


> <PubChem CID>
46229816

> <PubChem SID>
104163182

> <ChEBI ID of Ligand>


> <ChEMBL ID of Ligand>
CHEMBL589826

> <DrugBank ID of Ligand>


> <IUPHAR_GRAC ID of Ligand>


> <KEGG ID of Ligand>


> <ZINC ID of Ligand>
ZINC45337918

> <Number of Protein Chains in Target (>
1

> <BindingDB Target Chain Sequence>
MRPSGTAGAALLALLAALCPASRALEEKKVCQGTSNKLTQLGTFEDHFLSLQRMFNNCEVVLGNLEITYVQRNYDLSFLKTIQEVAGYVLIALNTVERIPLENLQIIRGNMYYENSYALAVLSNYDANKTGLKELPMRNLQEILHGAVRFSNNPALCNVESIQWRDIVSSDFLSNMSMDFQNHLGSCQKCDPSCPNGSCWGAGEENCQKLTKIICAQQCSGRCRGKSPSDCCHNQCAAGCTGPRESDCLVCRKFRDEATCKDTCPPLMLYNPTTYQMDVNPEGKYSFGATCVKKCPRNYVVTDHGSCVRACGADSYEMEEDGVRKCKKCEGPCRKVCNGIGIGEFKDSLSINATNIKHFKNCTSISGDLHILPVAFRGDSFTHTPPLDPQELDILKTVKEITGFLLIQAWPENRTDLHAFENLEIIRGRTKQHGQFSLAVVSLNITSLGLRSLKEISDGDVIISGNKNLCYANTINWKKLFGTSGQKTKIISNRGENSCKATGQVCHALCSPEGCWGPEPRDCVSCRNVSRGRECVDKCNLLEGEPREFVENSECIQCHPECLPQAMNITCTGRGPDNCIQCAHYIDGPHCVKTCPAGVMGENNTLVWKYADAGHVCHLCHPNCTYGCTGPGLEGCPTNGPKIPSIATGMVGALLLLLVVALGIGLFMRRRHIVRKRTLRRLLQERELVEPLTPSGEAPNQALLRILKETEFKKIKVLGSGAFGTVYKGLWIPEGEKVKIPVAIKELREATSPKANKEILDEAYVMASVDNPHVCRLLGICLTSTVQLITQLMPFGCLLDYVREHKDNIGSQYLLNWCVQIAKGMNYLEDRRLVHRDLAARNVLVKTPQHVKITDFGLAKLLGAEEKEYHAEGGKVPIKWMALESILHRIYTHQSDVWSYGVTVWELMTFGSKPYDGIPASEISSILEKGERLPQPPICTIDVYMIMVKCWMIDADSRPKFRELIIEFSKMARDPQRYLVIQGDERMHLPSPTDSNFYRALMDEEDMDDVVDADEYLIPQQGFFSSPSTSRTPLLSSLSATSNNSTVACIDRNGLQSCPIKEDSFLQRYSSDPTGALTEDSIDDTFLPVPEYINQSVPKRPAGSVQNPVYHNQPLNPAPSRDPHYQDPHSTAVGNPEYLNTVQPTCVNSTFDSPAHWAQKGSHQISLDNPDYQQDFFPKEAKPNGIFKGSTAENAEYLRVAPQSSEFIGA

> <PDB ID(s) of Target Chain>
1IVO,1M14,1M17,1MOX,1XKK,1Z9I,2GS2,2GS6,2ITW,2ITX,2ITY,2J5E,2J5F,2J6M,2RF9,2RGP,3B2V,3BEL,3GOP,3POZ,3QWQ,3VJO,3W2O,3W2P,3W2Q,3W2R,3W2S,3W32,3W33,4G5J,4I23,4JQ7,4JQ8,4JR3,4JRV,4KRO,4LI5,4RJ4,4RJ5,4RJ6,4RJ7,4RJ8,4TKS,4UIP,4UV7,4WKQ,4WRG,4ZAU,5C8K,5C8M,5C8N,5CAL,5CAN,5CAO,5CAP,5CAQ,5CAS,5CAU,5CAV,5EDP,5EDQ,5EDR,5EM5,5EM6,5EM7,5EM8,5FED,5GNK,5HCX,5HCY,5HCZ,5HIB,5HIC,5UGB,5WB7,5WB8,5Y25,6S89,6S8A

> <UniProt (SwissProt) Recommended Name of Target Chain>
Epidermal growth factor receptor

> <UniProt (SwissProt) Entry Name of Target Chain>
EGFR_HUMAN

> <UniProt (SwissProt) Primary ID of Target Chain>
P00533

> <UniProt (SwissProt) Secondary ID(s) of Target Chain>
O00688,O00732,P06268,Q14225,Q68GS5,Q92795,Q9BZS2,Q9GZX1,Q9H2C9,Q9H3C9,Q9UMD7,Q9UMD8,Q9UMG5

> <UniProt (SwissProt) Alternative ID(s) of Target Chain>


> <UniProt (TrEMBL) Submitted Name of Target Chain>


> <UniProt (TrEMBL) Entry Name of Target Chain>


> <UniProt (TrEMBL) Primary ID of Target Chain>


> <UniProt (TrEMBL) Secondary ID(s) of Target Chain>


> <UniProt (TrEMBL) Alternative ID(s) of Target Chain>


> <training label>
7.48678

> <i_lp_mmshare_version>
54117

> <s_epik_input>
W0NIMl09W0NIXVtDSDJdW0NIMl1bQ0gyXVtDSDJdT2MoW2NIXTEpYyhPW0NIM10pW2NIXWMoYzEyKW5bY0hdbmMyW05IXWMzW2NIXWMoQ2wpYyhGKVtjSF1bY0hdMw==

> <s_epik_cmdline>
J2VwaWtfcHl0aG9uJywgJy1waHQnLCAnMC4xJywgJy1waCcsICc3LjQnLCAnLXRuJywgJzgnLCAnLW1hJywgJzIwMCcsICctaW1hZScsICc8aW5maWxlLm1hZT4nLCAnLW9tYWUnLCAnPG91dGZpbGUubWFlPic=

> <r_lp_tautomer_probability>
1

> <r_epik_Ionization_Penalty>
  0.0011

> <r_epik_Ionization_Penalty_Charging>
  0.0000

> <r_epik_Ionization_Penalty_Neutral>
  0.0011

> <r_epik_State_Penalty>
  0.0000

> <r_epik_Charging_Adjusted_Penalty>
0

> <i_epik_Tot_Q>
0

> <i_epik_Tot_abs_Q>
0

> <i_f3d_flags>
0

> <s_lp_Force_Field>
OPLS_2005

> <r_lp_Energy>
19.703018

> <b_lp_Chiralities_Consistent>
1

> <s_lp_Variant>
BindingDB_50308821_mol_1-1

> <s_i_glide_gridfile>
struct_1_site_1

> <i_i_glide_lignum>
196

> <i_i_glide_rotatable_bonds>
9

> <r_i_docking_score>
-6.88410348578277

> <r_i_glide_ligand_efficiency>
-0.245860838777956

> <r_i_glide_ligand_efficiency_sa>
-0.746578310819991

> <r_i_glide_ligand_efficiency_ln>
-1.58905321057993

> <r_i_glide_gscore>
-6.88410348578277

> <r_i_glide_lipo>
-2.98917221602161

> <r_i_glide_hbond>
-0.32

> <r_i_glide_metal>
0

> <r_i_glide_rewards>
-1.82664216336782

> <r_i_glide_evdw>
-41.0965309143066

> <r_i_glide_ecoul>
-4.00940895080566

> <r_i_glide_erotb>
0.971842530335355

> <r_i_glide_esite>
-0.0638937483925076

> <r_i_glide_emodel>
-52.5444415699534

> <r_i_glide_energy>
-45.1059398651123

> <r_i_glide_einternal>
6.16042709350586

> <i_i_glide_confnum>
178

> <i_i_glide_posenum>
225

> <r_i_glide_eff_state_penalty>
0

> <IC50 (nM)>
32.6

> <PMID>
19969465

> <r_glide_shape_similarity>
0.891966700553894

> <s_m_subgroup_title>
505 training

> <s_m_subgroupid>
pocket_pv

> <b_m_subgroup_collapsed>
0

$$$$
/home/bortolaa/Project/GT/mario-master/ligands/set505ligs_train.sdf:194
                    3D
 Schrodinger Suite 2021-2.
 79 83  0  0  1  0            999 V2000
   14.3310   -2.6952   52.5748 C   0  0  0  0  0  0
   13.2614   -1.9167   52.0612 C   0  0  0  0  0  0
   13.5204   -0.5829   51.6474 C   0  0  0  0  0  0
   15.6295   -2.1229   52.6482 C   0  0  0  0  0  0
   15.8613   -0.7887   52.2415 C   0  0  0  0  0  0
   14.7980   -0.0042   51.7376 C   0  0  0  0  0  0
   15.0095    1.2566   51.3070 N   0  0  0  0  0  0
   16.2532    1.7253   51.3535 C   0  0  0  0  0  0
   17.3139    1.0788   51.8220 N   0  0  0  0  0  0
   17.1337   -0.1748   52.2875 C   0  0  0  0  0  0
   18.2170   -0.8611   52.8614 N   0  0  0  0  0  0
   19.5524   -0.4662   52.9729 C   0  0  0  0  0  0
   20.1574    0.4006   52.0408 C   0  0  0  0  0  0
   21.4910    0.7782   52.1962 C   0  0  0  0  0  0
   22.2590    0.2705   53.2672 C   0  0  0  0  0  0
   21.6756   -0.6380   54.1828 C   0  0  0  0  0  0
   20.3242   -1.0036   54.0279 C   0  0  0  0  0  0
   23.5830    0.7525   53.3748 N   0  0  0  0  0  0
   24.6541    0.0694   53.7749 C   0  0  0  0  0  0
   25.7685    0.6822   53.3540 N   0  0  0  0  0  0
   24.6168   -0.9493   54.4664 O   0  0  0  0  0  0
   27.0925    0.1848   53.4038 C   0  0  0  0  0  0
   28.1480    1.1200   53.4765 C   0  0  0  0  0  0
   29.4771    0.6548   53.5595 C   0  0  0  0  0  0
   29.7606   -0.7263   53.5056 C   0  0  0  0  0  0
   28.7161   -1.6544   53.3750 C   0  0  0  0  0  0
   27.3828   -1.2012   53.3325 C   0  0  0  0  0  0
   14.0459   -3.9925   52.9685 O   0  0  0  0  0  0
   15.0435   -4.7171   53.6826 C   0  0  0  0  0  0
   12.0110   -2.5198   51.9799 O   0  0  0  0  0  0
   10.9262   -1.8001   51.3875 C   0  0  0  0  0  0
   10.3183   -0.7587   52.3573 C   0  0  0  0  0  0
    9.5986    0.4071   51.6360 C   0  0  0  0  0  0
   10.5281    1.3079   50.9323 N   0  0  2  0  0  0
   11.2502    2.1695   51.8874 C   0  0  0  0  0  0
   12.2218    3.1118   51.1348 C   0  0  0  0  0  0
   11.4885    3.9722   50.1754 N   0  3  0  0  0  0
   10.6998    3.1280   49.2371 C   0  0  0  0  0  0
    9.7622    2.1696   50.0174 C   0  0  0  0  0  0
   12.3534    4.9687   49.5025 C   0  0  0  0  0  0
   22.1640    1.8627   51.0298 Cl  0  0  0  0  0  0
   27.8692    2.6167   53.4636 C   0  0  0  0  0  0
   12.7410    0.0203   51.2206 H   0  0  0  0  0  0
   16.4538   -2.7102   53.0210 H   0  0  0  0  0  0
   16.4112    2.7328   50.9939 H   0  0  0  0  0  0
   17.9630   -1.6544   53.4261 H   0  0  0  0  0  0
   19.6251    0.7773   51.1844 H   0  0  0  0  0  0
   22.2358   -1.0296   55.0190 H   0  0  0  0  0  0
   19.8790   -1.6824   54.7414 H   0  0  0  0  0  0
   23.7714    1.5882   52.8417 H   0  0  0  0  0  0
   25.6752    1.6120   52.9703 H   0  0  0  0  0  0
   30.2906    1.3574   53.6496 H   0  0  0  0  0  0
   30.7830   -1.0661   53.5589 H   0  0  0  0  0  0
   28.9327   -2.7121   53.3253 H   0  0  0  0  0  0
   26.5938   -1.9337   53.2426 H   0  0  0  0  0  0
   14.6282   -5.6701   54.0117 H   0  0  0  0  0  0
   15.9064   -4.9342   53.0493 H   0  0  0  0  0  0
   15.3771   -4.1725   54.5676 H   0  0  0  0  0  0
   10.1548   -2.5216   51.1142 H   0  0  0  0  0  0
   11.2413   -1.3503   50.4467 H   0  0  0  0  0  0
   11.0789   -0.3751   53.0348 H   0  0  0  0  0  0
    9.6056   -1.2695   53.0055 H   0  0  0  0  0  0
    9.0036    0.9829   52.3482 H   0  0  0  0  0  0
    8.8906   -0.0216   50.9241 H   0  0  0  0  0  0
   11.8289    1.5674   52.5829 H   0  0  0  0  0  0
   10.5438    2.7340   52.4912 H   0  0  0  0  0  0
   12.7625    3.7345   51.8504 H   0  0  0  0  0  0
   12.9572    2.5361   50.5778 H   0  0  0  0  0  0
   10.1027    3.7698   48.5891 H   0  0  0  0  0  0
   11.3731    2.5608   48.5928 H   0  0  0  0  0  0
    9.0123    2.7327   50.5750 H   0  0  0  0  0  0
    9.2140    1.5477   49.3082 H   0  0  0  0  0  0
   13.0898    4.4834   48.8603 H   0  0  0  0  0  0
   11.7554    5.6484   48.8912 H   0  0  0  0  0  0
   12.8919    5.5703   50.2357 H   0  0  0  0  0  0
   28.7685    3.1730   53.7243 H   0  0  0  0  0  0
   27.5492    2.9363   52.4718 H   0  0  0  0  0  0
   27.0911    2.8910   54.1744 H   0  0  0  0  0  0
   10.7862    4.4663   50.7381 H   0  0  0  0  0  0
  1  2  2  0  0  0
  1  4  1  0  0  0
  1 28  1  0  0  0
  2  3  1  0  0  0
  2 30  1  0  0  0
  3  6  2  0  0  0
  3 43  1  0  0  0
  4  5  2  0  0  0
  4 44  1  0  0  0
  5  6  1  0  0  0
  5 10  1  0  0  0
  6  7  1  0  0  0
  7  8  2  0  0  0
  8  9  1  0  0  0
  8 45  1  0  0  0
  9 10  2  0  0  0
 10 11  1  0  0  0
 11 12  1  0  0  0
 11 46  1  0  0  0
 12 13  2  0  0  0
 12 17  1  0  0  0
 13 14  1  0  0  0
 13 47  1  0  0  0
 14 15  2  0  0  0
 14 41  1  0  0  0
 15 16  1  0  0  0
 15 18  1  0  0  0
 16 17  2  0  0  0
 16 48  1  0  0  0
 17 49  1  0  0  0
 18 19  1  0  0  0
 18 50  1  0  0  0
 19 20  1  0  0  0
 19 21  2  0  0  0
 20 22  1  0  0  0
 20 51  1  0  0  0
 22 23  2  0  0  0
 22 27  1  0  0  0
 23 24  1  0  0  0
 23 42  1  0  0  0
 24 25  2  0  0  0
 24 52  1  0  0  0
 25 26  1  0  0  0
 25 53  1  0  0  0
 26 27  2  0  0  0
 26 54  1  0  0  0
 27 55  1  0  0  0
 28 29  1  0  0  0
 29 56  1  0  0  0
 29 57  1  0  0  0
 29 58  1  0  0  0
 30 31  1  0  0  0
 31 32  1  0  0  0
 31 59  1  0  0  0
 31 60  1  0  0  0
 32 33  1  0  0  0
 32 61  1  0  0  0
 32 62  1  0  0  0
 33 34  1  0  0  0
 33 63  1  0  0  0
 33 64  1  0  0  0
 34 35  1  0  0  0
 34 39  1  0  0  0
 35 36  1  0  0  0
 35 65  1  0  0  0
 35 66  1  0  0  0
 36 37  1  0  0  0
 36 67  1  0  0  0
 36 68  1  0  0  0
 37 38  1  0  0  0
 37 40  1  0  0  0
 37 79  1  0  0  0
 38 39  1  0  0  0
 38 69  1  0  0  0
 38 70  1  0  0  0
 39 71  1  0  0  0
 39 72  1  0  0  0
 40 73  1  0  0  0
 40 74  1  0  0  0
 40 75  1  0  0  0
 42 76  1  0  0  0
 42 77  1  0  0  0
 42 78  1  0  0  0
M  CHG  1  37   1
M  END
> <s_m_entry_id>
388

> <s_m_entry_name>
pocket_pv.199

> <s_m_Source_Path>
/home/bortolaa/Project/GT/mario-master/docking/set505protein_struct_1_site_1_set505ligs_train

> <s_m_Source_File>
pocket_pv.maegz

> <i_m_Source_File_Index>
199

> <From>
www.bindingDB.org

> <BindingDB Reactant_set_id>
50553197

> <Ligand InChI>
InChI=1S/C31H36ClN7O3/c1-21-7-4-5-8-25(21)36-31(40)37-26-10-9-22(17-24(26)32)35-30-23-18-28(41-3)29(19-27(23)33-20-34-30)42-16-6-11-39-14-12-38(2)13-15-39/h4-5,7-10,17-20H,6,11-16H2,1-3H3,(H,33,34,35)(H2,36,37,40)

> <Ligand InChI Key>
ZJRGJJLIBUMGRV-UHFFFAOYSA-N

> <BindingDB MonomerID>
50210752

> <BindingDB Ligand Name>
CHEMBL3938494

> <Target Name Assigned by Curator or DataSource>
Epidermal growth factor receptor

> <Target Source Organism According to Curator or DataSource>
Homo sapiens

> <Ki (nM)>


> <Kd (nM)>


> <EC50 (nM)>


> <kon (M-1-s-1)>


> <koff (s-1)>


> <pH>


> <Temp C>


> <Curation/DataSource>
ChEMBL

> <Article DOI>
10.1016/j.ejmech.2016.09.039

> <PubChem AID>


> <Patent Number>


> <Authors>
Zhang, HQ; Gong, FH; Ye, JQ; Zhang, C; Yue, XH; Li, CG; Xu, YG; Sun, LP

> <Institution>
China Pharmaceutical University

> <Link to Ligand in BindingDB>
http://www.bindingdb.org/bind/chemsearch/marvin/MolStructure.jsp?monomerid=50210752

> <Link to Ligand-Target Pair in BindingDB>
http://www.bindingdb.org/jsp/dbsearch/PrimarySearch_ki.jsp?energyterm=kJ/mole&tag=r21&monomerid=50210752&enzyme=Epidermal+growth+factor+receptor&column=ki&startPg=0&Increment=50&submit=Search

> <Ligand HET ID in PDB>


> <PDB ID(s) for Ligand-Target Complex>


> <PubChem CID>
134148524

> <PubChem SID>
375982719

> <ChEBI ID of Ligand>


> <ChEMBL ID of Ligand>
CHEMBL3938494

> <DrugBank ID of Ligand>


> <IUPHAR_GRAC ID of Ligand>


> <KEGG ID of Ligand>


> <ZINC ID of Ligand>


> <Number of Protein Chains in Target (>
1

> <BindingDB Target Chain Sequence>
MRPSGTAGAALLALLAALCPASRALEEKKVCQGTSNKLTQLGTFEDHFLSLQRMFNNCEVVLGNLEITYVQRNYDLSFLKTIQEVAGYVLIALNTVERIPLENLQIIRGNMYYENSYALAVLSNYDANKTGLKELPMRNLQEILHGAVRFSNNPALCNVESIQWRDIVSSDFLSNMSMDFQNHLGSCQKCDPSCPNGSCWGAGEENCQKLTKIICAQQCSGRCRGKSPSDCCHNQCAAGCTGPRESDCLVCRKFRDEATCKDTCPPLMLYNPTTYQMDVNPEGKYSFGATCVKKCPRNYVVTDHGSCVRACGADSYEMEEDGVRKCKKCEGPCRKVCNGIGIGEFKDSLSINATNIKHFKNCTSISGDLHILPVAFRGDSFTHTPPLDPQELDILKTVKEITGFLLIQAWPENRTDLHAFENLEIIRGRTKQHGQFSLAVVSLNITSLGLRSLKEISDGDVIISGNKNLCYANTINWKKLFGTSGQKTKIISNRGENSCKATGQVCHALCSPEGCWGPEPRDCVSCRNVSRGRECVDKCNLLEGEPREFVENSECIQCHPECLPQAMNITCTGRGPDNCIQCAHYIDGPHCVKTCPAGVMGENNTLVWKYADAGHVCHLCHPNCTYGCTGPGLEGCPTNGPKIPSIATGMVGALLLLLVVALGIGLFMRRRHIVRKRTLRRLLQERELVEPLTPSGEAPNQALLRILKETEFKKIKVLGSGAFGTVYKGLWIPEGEKVKIPVAIKELREATSPKANKEILDEAYVMASVDNPHVCRLLGICLTSTVQLITQLMPFGCLLDYVREHKDNIGSQYLLNWCVQIAKGMNYLEDRRLVHRDLAARNVLVKTPQHVKITDFGLAKLLGAEEKEYHAEGGKVPIKWMALESILHRIYTHQSDVWSYGVTVWELMTFGSKPYDGIPASEISSILEKGERLPQPPICTIDVYMIMVKCWMIDADSRPKFRELIIEFSKMARDPQRYLVIQGDERMHLPSPTDSNFYRALMDEEDMDDVVDADEYLIPQQGFFSSPSTSRTPLLSSLSATSNNSTVACIDRNGLQSCPIKEDSFLQRYSSDPTGALTEDSIDDTFLPVPEYINQSVPKRPAGSVQNPVYHNQPLNPAPSRDPHYQDPHSTAVGNPEYLNTVQPTCVNSTFDSPAHWAQKGSHQISLDNPDYQQDFFPKEAKPNGIFKGSTAENAEYLRVAPQSSEFIGA

> <PDB ID(s) of Target Chain>
1IVO,1M14,1M17,1MOX,1XKK,1Z9I,2GS2,2GS6,2ITW,2ITX,2ITY,2J5E,2J5F,2J6M,2RF9,2RGP,3B2V,3BEL,3GOP,3POZ,3QWQ,3VJO,3W2O,3W2P,3W2Q,3W2R,3W2S,3W32,3W33,4G5J,4I23,4JQ7,4JQ8,4JR3,4JRV,4KRO,4LI5,4RJ4,4RJ5,4RJ6,4RJ7,4RJ8,4TKS,4UIP,4UV7,4WKQ,4WRG,4ZAU,5C8K,5C8M,5C8N,5CAL,5CAN,5CAO,5CAP,5CAQ,5CAS,5CAU,5CAV,5EDP,5EDQ,5EDR,5EM5,5EM6,5EM7,5EM8,5FED,5GNK,5HCX,5HCY,5HCZ,5HIB,5HIC,5UGB,5WB7,5WB8,5Y25,6S89,6S8A

> <UniProt (SwissProt) Recommended Name of Target Chain>
Epidermal growth factor receptor

> <UniProt (SwissProt) Entry Name of Target Chain>
EGFR_HUMAN

> <UniProt (SwissProt) Primary ID of Target Chain>
P00533

> <UniProt (SwissProt) Secondary ID(s) of Target Chain>
O00688,O00732,P06268,Q14225,Q68GS5,Q92795,Q9BZS2,Q9GZX1,Q9H2C9,Q9H3C9,Q9UMD7,Q9UMD8,Q9UMG5

> <UniProt (SwissProt) Alternative ID(s) of Target Chain>


> <UniProt (TrEMBL) Submitted Name of Target Chain>


> <UniProt (TrEMBL) Entry Name of Target Chain>


> <UniProt (TrEMBL) Primary ID of Target Chain>


> <UniProt (TrEMBL) Secondary ID(s) of Target Chain>


> <UniProt (TrEMBL) Alternative ID(s) of Target Chain>


> <training label>
7.82391

> <i_lp_mmshare_version>
54117

> <s_epik_input>
W0NIMl0xW0NIMl1OKFtDSDNdKVtDSDJdW0NIMl1OMVtDSDJdW0NIMl1bQ0gyXU9jKGMoW2NIXTIpT1tDSDNdKVtjSF1jKGMyMyluW2NIXW5jM1tOSF1jNFtjSF1jKENsKWMoW2NIXVtjSF00KVtOSF1DKD1PKVtOSF1jNWMoW0NIM10pW2NIXVtjSF1bY0hdW2NIXTU=

> <s_epik_cmdline>
J2VwaWtfcHl0aG9uJywgJy1waHQnLCAnMC4xJywgJy1waCcsICc3LjQnLCAnLXRuJywgJzgnLCAnLW1hJywgJzIwMCcsICctaW1hZScsICc8aW5maWxlLm1hZT4nLCAnLW9tYWUnLCAnPG91dGZpbGUubWFlPic=

> <r_lp_tautomer_probability>
0.999978000241998

> <r_epik_Ionization_Penalty>
  0.0669

> <r_epik_Ionization_Penalty_Charging>
  0.0659

> <r_epik_Ionization_Penalty_Neutral>
  0.0010

> <r_epik_State_Penalty>
  0.1437

> <r_epik_Charging_Adjusted_Penalty>
0.209599309145144

> <i_epik_Tot_Q>
1

> <i_epik_Tot_abs_Q>
1

> <i_f3d_flags>
0

> <s_lp_Force_Field>
OPLS_2005

> <r_lp_Energy>
56.549838

> <b_lp_Chiralities_Consistent>
1

> <s_lp_Variant>
/home/bortolaa/Project/GT/mario-master/ligands/set505ligs_train.sdf:194-1

> <s_i_glide_gridfile>
struct_1_site_1

> <i_i_glide_lignum>
218

> <i_i_glide_rotatable_bonds>
12

> <r_i_docking_score>
-6.84846348189313

> <r_i_glide_ligand_efficiency>
-0.163058654330789

> <r_i_glide_ligand_efficiency_sa>
-0.566796226426986

> <r_i_glide_ligand_efficiency_ln>
-1.44553420429823

> <r_i_glide_gscore>
-6.99216348189313

> <r_i_glide_lipo>
-3.21198780358734

> <r_i_glide_hbond>
-0.2

> <r_i_glide_metal>
0

> <r_i_glide_rewards>
-0.278697892006403

> <r_i_glide_evdw>
-49.3491134643555

> <r_i_glide_ecoul>
-8.56264591217041

> <r_i_glide_erotb>
0.550374773743946

> <r_i_glide_esite>
-0.1

> <r_i_glide_emodel>
-36.5135913702257

> <r_i_glide_energy>
-57.9117593765259

> <r_i_glide_einternal>
6.0246000289917

> <i_i_glide_confnum>
26

> <i_i_glide_posenum>
93

> <r_i_glide_eff_state_penalty>
0.1437

> <IC50 (nM)>
15

> <PMID>
27688180

> <r_glide_shape_similarity>
0.501608550548553

> <s_m_subgroup_title>
505 training

> <s_m_subgroupid>
pocket_pv

> <b_m_subgroup_collapsed>
0

$$$$
4-anilinoquinazoline
                    3D
 Schrodinger Suite 2021-2.
 43 46  0  0  1  0            999 V2000
   14.5881   -0.5653   52.6884 C   0  0  0  0  0  0
   14.4944    0.6052   51.9277 C   0  0  0  0  0  0
   15.6627    1.2202   51.4496 C   0  0  0  0  0  0
   16.9252    0.6972   51.7700 C   0  0  0  0  0  0
   17.0245   -0.4515   52.5694 C   0  0  0  0  0  0
   15.8516   -1.1033   52.9754 C   0  0  0  0  0  0
   18.3609   -0.9383   53.0716 C   0  0  0  0  0  0
   19.3634   -0.0702   52.6284 O   0  0  0  0  0  0
   20.6267   -0.1888   53.1114 C   0  0  0  0  0  0
   21.0782   -1.0786   54.1117 C   0  0  0  0  0  0
   21.5228    0.6700   52.4899 C   0  0  0  0  0  0
   22.8764    0.6247   52.8033 C   0  0  0  0  0  0
   23.3558   -0.2740   53.7704 C   0  0  0  0  0  0
   22.4455   -1.1152   54.4407 C   0  0  0  0  0  0
   24.7247   -0.4307   53.9898 N   0  0  0  0  0  0
   25.7686    0.4339   53.6317 C   0  0  0  0  0  0
   26.5036    2.5651   53.3740 C   0  0  0  0  0  0
   27.0884   -0.0254   53.4712 C   0  0  0  0  0  0
   28.0982    0.9578   53.3822 C   0  0  0  0  0  0
   27.4199   -1.3864   53.4125 C   0  0  0  0  0  0
   29.7743   -0.8097   53.3793 C   0  0  0  0  0  0
   29.4360    0.5507   53.3744 C   0  0  0  0  0  0
   25.4939    1.7385   53.5665 N   0  0  0  0  0  0
   27.7888    2.2551   53.3118 N   0  0  0  0  0  0
   28.7645   -1.7730   53.3734 C   0  0  0  0  0  0
   29.0951   -3.0878   53.3741 O   0  0  0  0  0  0
   13.6949   -1.0532   53.0505 H   0  0  0  0  0  0
   13.5270    1.0267   51.6977 H   0  0  0  0  0  0
   15.5888    2.1178   50.8523 H   0  0  0  0  0  0
   17.8016    1.2232   51.4216 H   0  0  0  0  0  0
   15.9221   -1.9962   53.5765 H   0  0  0  0  0  0
   18.3195   -0.9512   54.1616 H   0  0  0  0  0  0
   18.5451   -1.9549   52.7252 H   0  0  0  0  0  0
   20.3974   -1.7503   54.6117 H   0  0  0  0  0  0
   21.1766    1.3477   51.7219 H   0  0  0  0  0  0
   23.5288    1.2585   52.2248 H   0  0  0  0  0  0
   22.7978   -1.8198   55.1794 H   0  0  0  0  0  0
   24.9942   -1.3071   54.4017 H   0  0  0  0  0  0
   26.2298    3.5915   53.2793 H   0  0  0  0  0  0
   26.6537   -2.1476   53.4341 H   0  0  0  0  0  0
   30.8109   -1.1110   53.3725 H   0  0  0  0  0  0
   30.2211    1.2955   53.3336 H   0  0  0  0  0  0
   28.3622   -3.6583   53.5544 H   0  0  0  0  0  0
  1  2  2  0  0  0
  1  6  1  0  0  0
  1 27  1  0  0  0
  2  3  1  0  0  0
  2 28  1  0  0  0
  3  4  2  0  0  0
  3 29  1  0  0  0
  4  5  1  0  0  0
  4 30  1  0  0  0
  5  6  2  0  0  0
  5  7  1  0  0  0
  6 31  1  0  0  0
  7  8  1  0  0  0
  7 32  1  0  0  0
  7 33  1  0  0  0
  8  9  1  0  0  0
  9 10  2  0  0  0
  9 11  1  0  0  0
 10 14  1  0  0  0
 10 34  1  0  0  0
 11 12  2  0  0  0
 11 35  1  0  0  0
 12 13  1  0  0  0
 12 36  1  0  0  0
 13 14  2  0  0  0
 13 15  1  0  0  0
 14 37  1  0  0  0
 15 16  1  0  0  0
 15 38  1  0  0  0
 16 18  2  0  0  0
 16 23  1  0  0  0
 17 23  2  0  0  0
 17 24  1  0  0  0
 17 39  1  0  0  0
 18 19  1  0  0  0
 18 20  1  0  0  0
 19 22  1  0  0  0
 19 24  2  0  0  0
 20 25  2  0  0  0
 20 40  1  0  0  0
 21 22  2  0  0  0
 21 25  1  0  0  0
 21 41  1  0  0  0
 22 42  1  0  0  0
 25 26  1  0  0  0
 26 43  1  0  0  0
M  END
> <s_m_entry_id>
389

> <s_m_entry_name>
pocket_pv.200

> <s_m_Source_Path>
/home/bortolaa/Project/GT/mario-master/docking/set505protein_struct_1_site_1_set505ligs_train

> <s_m_Source_File>
pocket_pv.maegz

> <i_m_Source_File_Index>
200

> <From>
www.bindingDB.org

> <BindingDB Reactant_set_id>
8656

> <Ligand InChI>
InChI=1S/C21H17N3O2/c25-17-8-11-20-19(12-17)21(23-14-22-20)24-16-6-9-18(10-7-16)26-13-15-4-2-1-3-5-15/h1-12,14,25H,13H2,(H,22,23,24)

> <Ligand InChI Key>
BURBAFXROHRDAV-UHFFFAOYSA-N

> <BindingDB MonomerID>
5448

> <BindingDB Ligand Name>
4-anilinoquinazoline 4a::4-{[4-(benzyloxy)phenyl]amino}quinazolin-6-ol

> <Target Name Assigned by Curator or DataSource>
Epidermal growth factor receptor

> <Target Source Organism According to Curator or DataSource>
Homo sapiens

> <Ki (nM)>


> <Kd (nM)>


> <EC50 (nM)>


> <kon (M-1-s-1)>


> <koff (s-1)>


> <Curation/DataSource>
Curated from the literature by BindingDB

> <Article DOI>
10.1021/jm061320h

> <PubChem AID>


> <Patent Number>


> <Authors>
Gaul, MD; Guo, Y; Affleck, K; Cockerill, GS; Gilmer, TM; Griffin, RJ; Guntrip, S; Keith, BR; Knight, WB; Mullin, RJ; Murray, DM; Rusnak, DW; Smith, K; Tadepalli, S; Wood, ER; Lackey, K

> <Institution>
GlaxoSmithKline

> <Link to Ligand in BindingDB>
http://www.bindingdb.org/bind/chemsearch/marvin/MolStructure.jsp?monomerid=5448

> <Link to Ligand-Target Pair in BindingDB>
http://www.bindingdb.org/jsp/dbsearch/PrimarySearch_ki.jsp?energyterm=kJ/mole&tag=r21&monomerid=5448&enzyme=Epidermal+growth+factor+receptor&column=ki&startPg=0&Increment=50&submit=Search

> <Ligand HET ID in PDB>


> <PDB ID(s) for Ligand-Target Complex>


> <PubChem CID>
5329481

> <PubChem SID>
8035067

> <ChEBI ID of Ligand>


> <ChEMBL ID of Ligand>


> <DrugBank ID of Ligand>


> <IUPHAR_GRAC ID of Ligand>


> <KEGG ID of Ligand>


> <ZINC ID of Ligand>
ZINC13588396

> <Number of Protein Chains in Target (>
1

> <BindingDB Target Chain Sequence>
MRPSGTAGAALLALLAALCPASRALEEKKVCQGTSNKLTQLGTFEDHFLSLQRMFNNCEVVLGNLEITYVQRNYDLSFLKTIQEVAGYVLIALNTVERIPLENLQIIRGNMYYENSYALAVLSNYDANKTGLKELPMRNLQEILHGAVRFSNNPALCNVESIQWRDIVSSDFLSNMSMDFQNHLGSCQKCDPSCPNGSCWGAGEENCQKLTKIICAQQCSGRCRGKSPSDCCHNQCAAGCTGPRESDCLVCRKFRDEATCKDTCPPLMLYNPTTYQMDVNPEGKYSFGATCVKKCPRNYVVTDHGSCVRACGADSYEMEEDGVRKCKKCEGPCRKVCNGIGIGEFKDSLSINATNIKHFKNCTSISGDLHILPVAFRGDSFTHTPPLDPQELDILKTVKEITGFLLIQAWPENRTDLHAFENLEIIRGRTKQHGQFSLAVVSLNITSLGLRSLKEISDGDVIISGNKNLCYANTINWKKLFGTSGQKTKIISNRGENSCKATGQVCHALCSPEGCWGPEPRDCVSCRNVSRGRECVDKCNLLEGEPREFVENSECIQCHPECLPQAMNITCTGRGPDNCIQCAHYIDGPHCVKTCPAGVMGENNTLVWKYADAGHVCHLCHPNCTYGCTGPGLEGCPTNGPKIPSIATGMVGALLLLLVVALGIGLFMRRRHIVRKRTLRRLLQERELVEPLTPSGEAPNQALLRILKETEFKKIKVLGSGAFGTVYKGLWIPEGEKVKIPVAIKELREATSPKANKEILDEAYVMASVDNPHVCRLLGICLTSTVQLITQLMPFGCLLDYVREHKDNIGSQYLLNWCVQIAKGMNYLEDRRLVHRDLAARNVLVKTPQHVKITDFGLAKLLGAEEKEYHAEGGKVPIKWMALESILHRIYTHQSDVWSYGVTVWELMTFGSKPYDGIPASEISSILEKGERLPQPPICTIDVYMIMVKCWMIDADSRPKFRELIIEFSKMARDPQRYLVIQGDERMHLPSPTDSNFYRALMDEEDMDDVVDADEYLIPQQGFFSSPSTSRTPLLSSLSATSNNSTVACIDRNGLQSCPIKEDSFLQRYSSDPTGALTEDSIDDTFLPVPEYINQSVPKRPAGSVQNPVYHNQPLNPAPSRDPHYQDPHSTAVGNPEYLNTVQPTCVNSTFDSPAHWAQKGSHQISLDNPDYQQDFFPKEAKPNGIFKGSTAENAEYLRVAPQSSEFIGA

> <PDB ID(s) of Target Chain>
1IVO,1M14,1M17,1MOX,1XKK,1Z9I,2GS2,2GS6,2ITW,2ITX,2ITY,2J5E,2J5F,2J6M,2RF9,2RGP,3B2V,3BEL,3GOP,3POZ,3QWQ,3VJO,3W2O,3W2P,3W2Q,3W2R,3W2S,3W32,3W33,4G5J,4I23,4JQ7,4JQ8,4JR3,4JRV,4KRO,4LI5,4RJ4,4RJ5,4RJ6,4RJ7,4RJ8,4TKS,4UIP,4UV7,4WKQ,4WRG,4ZAU,5C8K,5C8M,5C8N,5CAL,5CAN,5CAO,5CAP,5CAQ,5CAS,5CAU,5CAV,5EDP,5EDQ,5EDR,5EM5,5EM6,5EM7,5EM8,5FED,5GNK,5HCX,5HCY,5HCZ,5HIB,5HIC,5UGB,5WB7,5WB8,5Y25,6S89,6S8A

> <UniProt (SwissProt) Recommended Name of Target Chain>
Epidermal growth factor receptor

> <UniProt (SwissProt) Entry Name of Target Chain>
EGFR_HUMAN

> <UniProt (SwissProt) Primary ID of Target Chain>
P00533

> <UniProt (SwissProt) Secondary ID(s) of Target Chain>
O00688,O00732,P06268,Q14225,Q68GS5,Q92795,Q9BZS2,Q9GZX1,Q9H2C9,Q9H3C9,Q9UMD7,Q9UMD8,Q9UMG5

> <UniProt (SwissProt) Alternative ID(s) of Target Chain>


> <UniProt (TrEMBL) Submitted Name of Target Chain>


> <UniProt (TrEMBL) Entry Name of Target Chain>


> <UniProt (TrEMBL) Primary ID of Target Chain>


> <UniProt (TrEMBL) Secondary ID(s) of Target Chain>


> <UniProt (TrEMBL) Alternative ID(s) of Target Chain>


> <training label>
7.00877

> <i_lp_mmshare_version>
54117

> <s_epik_input>
W2NIXTFbY0hdW2NIXVtjSF1bY0hdYzFbQ0gyXU9jMltjSF1bY0hdYyhbY0hdW2NIXTIpW05IXWMzbltjSF1uYyhjMzQpW2NIXVtjSF1jKFtjSF00KVtPSF0=

> <s_epik_cmdline>
J2VwaWtfcHl0aG9uJywgJy1waHQnLCAnMC4xJywgJy1waCcsICc3LjQnLCAnLXRuJywgJzgnLCAnLW1hJywgJzIwMCcsICctaW1hZScsICc8aW5maWxlLm1hZT4nLCAnLW9tYWUnLCAnPG91dGZpbGUubWFlPic=

> <r_lp_tautomer_probability>
1

> <r_epik_Ionization_Penalty>
  0.0144

> <r_epik_Ionization_Penalty_Charging>
  0.0000

> <r_epik_Ionization_Penalty_Neutral>
  0.0144

> <r_epik_State_Penalty>
  0.0000

> <r_epik_Charging_Adjusted_Penalty>
0

> <i_epik_Tot_Q>
0

> <i_epik_Tot_abs_Q>
0

> <i_f3d_flags>
0

> <s_lp_Force_Field>
OPLS_2005

> <r_lp_Energy>
21.811322

> <b_lp_Chiralities_Consistent>
1

> <s_lp_Variant>
4-anilinoquinazoline-1

> <s_i_glide_gridfile>
struct_1_site_1

> <i_i_glide_lignum>
163

> <i_i_glide_rotatable_bonds>
6

> <r_i_docking_score>
-6.84698437684825

> <r_i_glide_ligand_efficiency>
-0.263345552955702

> <r_i_glide_ligand_efficiency_sa>
-0.780160164416553

> <r_i_glide_ligand_efficiency_ln>
-1.6079918141146

> <r_i_glide_gscore>
-6.84698437684825

> <r_i_glide_lipo>
-3.65772695297348

> <r_i_glide_hbond>
-0.00478422825932803

> <r_i_glide_metal>
0

> <r_i_glide_rewards>
-1.06787331818182

> <r_i_glide_evdw>
-42.2904663085938

> <r_i_glide_ecoul>
-4.7851243019104

> <r_i_glide_erotb>
0.804615103017045

> <r_i_glide_esite>
-0.0889230197344202

> <r_i_glide_emodel>
-41.6135351206433

> <r_i_glide_energy>
-47.0755906105042

> <r_i_glide_einternal>
3.54899454116821

> <i_i_glide_confnum>
48

> <i_i_glide_posenum>
124

> <r_i_glide_eff_state_penalty>
0

> <IC50 (nM)>
98

> <PMID>
12639547

> <Temp C>
23

> <r_glide_shape_similarity>
0.772655189037323

> <pH>
7.5

> <s_m_subgroup_title>
505 training

> <s_m_subgroupid>
pocket_pv

> <b_m_subgroup_collapsed>
0

$$$$
BindingDB_50144606_mol_1
                    3D
 Schrodinger Suite 2021-2.
 44 47  0  0  1  0            999 V2000
   24.9465    0.7528   53.1415 N   0  0  0  0  0  0
   26.3634    0.7235   52.8265 C   0  0  1  0  0  0
   24.2025   -0.0907   53.9325 C   0  0  0  0  0  0
   22.8768    0.2348   53.6142 C   0  0  0  0  0  0
   22.7818    1.3082   52.7577 N   0  0  0  0  0  0
   27.0725    1.9859   53.2424 C   0  0  1  0  0  0
   24.0594    1.5532   52.5395 C   0  0  0  0  0  0
   26.9754   -0.3033   53.4862 O   0  0  0  0  0  0
   28.4919    1.4545   53.3465 C   0  0  2  0  0  0
   28.3254   -0.0727   53.2137 C   0  0  1  0  0  0
   21.9134   -0.5299   54.2530 C   0  0  0  0  0  0
   24.5800   -1.0524   54.8190 N   0  0  0  0  0  0
   22.2351   -1.4883   55.1320 N   0  0  0  0  0  0
   20.2853   -0.0696   54.1636 S   0  0  0  0  0  0
   23.5291   -1.6662   55.3723 C   0  0  0  0  0  0
   26.9948    2.9348   52.2120 O   0  0  0  0  0  0
   29.0847    1.8993   54.5408 O   0  0  0  0  0  0
   19.9258    0.1941   52.4123 C   0  0  0  0  0  0
   15.6376   -0.1235   52.4598 C   0  0  0  0  0  0
   18.4425   -0.0100   52.2749 C   0  0  0  0  0  0
   29.1753   -0.9630   54.0874 C   0  0  0  0  0  0
   13.5832   -0.1318   52.8026 I   0  0  0  0  0  0
   16.2502    0.9215   51.7531 C   0  0  0  0  0  0
   16.4198   -1.1602   52.9774 C   0  0  0  0  0  0
   17.6533    0.9761   51.6584 C   0  0  0  0  0  0
   17.8173   -1.1047   52.8971 C   0  0  0  0  0  0
   30.2865   -1.4102   53.3667 O   0  0  0  0  0  0
   26.3829    0.5502   51.7454 H   0  0  0  0  0  0
   26.6784    2.3634   54.1888 H   0  0  0  0  0  0
   24.3495    2.3193   51.8331 H   0  0  0  0  0  0
   29.1227    1.8278   52.5433 H   0  0  0  0  0  0
   28.4765   -0.3735   52.1765 H   0  0  0  0  0  0
   23.7669   -2.4433   56.0785 H   0  0  0  0  0  0
   27.1342    3.8012   52.5800 H   0  0  0  0  0  0
   30.0207    1.8471   54.4371 H   0  0  0  0  0  0
   20.1705    1.2180   52.1290 H   0  0  0  0  0  0
   20.4922   -0.4666   51.7640 H   0  0  0  0  0  0
   28.6223   -1.8502   54.3890 H   0  0  0  0  0  0
   29.5149   -0.4264   54.9729 H   0  0  0  0  0  0
   15.6512    1.7182   51.3469 H   0  0  0  0  0  0
   15.9463   -1.9760   53.4951 H   0  0  0  0  0  0
   18.1092    1.8256   51.1784 H   0  0  0  0  0  0
   18.3875   -1.8865   53.3703 H   0  0  0  0  0  0
   30.8590   -0.6721   53.2011 H   0  0  0  0  0  0
  1  2  1  0  0  0
  1  3  1  0  0  0
  1  7  1  0  0  0
  2  6  1  0  0  0
  2  8  1  0  0  0
  2 28  1  0  0  0
  3  4  2  0  0  0
  3 12  1  0  0  0
  4 11  1  0  0  0
  4  5  1  0  0  0
  5  7  2  0  0  0
  6  9  1  0  0  0
  6 16  1  0  0  0
  6 29  1  0  0  0
  7 30  1  0  0  0
  8 10  1  0  0  0
  9 17  1  0  0  0
  9 10  1  0  0  0
  9 31  1  0  0  0
 10 21  1  0  0  0
 10 32  1  0  0  0
 11 14  1  0  0  0
 11 13  2  0  0  0
 12 15  2  0  0  0
 13 15  1  0  0  0
 14 18  1  0  0  0
 15 33  1  0  0  0
 16 34  1  0  0  0
 17 35  1  0  0  0
 18 20  1  0  0  0
 18 36  1  0  0  0
 18 37  1  0  0  0
 19 24  2  0  0  0
 19 22  1  0  0  0
 19 23  1  0  0  0
 20 25  1  0  0  0
 20 26  2  0  0  0
 21 27  1  0  0  0
 21 38  1  0  0  0
 21 39  1  0  0  0
 23 25  2  0  0  0
 23 40  1  0  0  0
 24 26  1  0  0  0
 24 41  1  0  0  0
 25 42  1  0  0  0
 26 43  1  0  0  0
 27 44  1  0  0  0
M  END
> <s_m_entry_id>
390

> <s_m_entry_name>
pocket_pv.201

> <s_m_Source_Path>
/home/bortolaa/Project/GT/mario-master/docking/set505protein_struct_1_site_1_set505ligs_train

> <s_m_Source_File>
pocket_pv.maegz

> <i_m_Source_File_Index>
201

> <From>
www.bindingDB.org

> <BindingDB Reactant_set_id>
50463846

> <Ligand InChI>
InChI=1S/C29H23ClN4O3/c1-36-26-15-23-25(16-27(26)37-17-19-7-3-2-4-8-19)31-18-32-28(23)33-20-11-13-21(14-12-20)34-29(35)22-9-5-6-10-24(22)30/h2-16,18H,17H2,1H3,(H,34,35)(H,31,32,33)

> <Ligand InChI Key>
JASSTMZJDQXQFP-UHFFFAOYSA-N

> <BindingDB MonomerID>
50144606

> <BindingDB Ligand Name>
CHEMBL3759203

> <Target Name Assigned by Curator or DataSource>
Epidermal growth factor receptor

> <Target Source Organism According to Curator or DataSource>
Homo sapiens

> <Ki (nM)>


> <IC50 (nM)>
730

> <Kd (nM)>


> <EC50 (nM)>


> <kon (M-1-s-1)>


> <koff (s-1)>


> <pH>


> <Temp C>


> <Curation/DataSource>
ChEMBL

> <Article DOI>
10.1016/j.ejmech.2015.12.032

> <PubChem AID>


> <Patent Number>


> <Authors>
Zhang, HQ; Gong, FH; Li, CG; Zhang, C; Wang, YJ; Xu, YG; Sun, LP

> <Institution>
China Pharmaceutical University

> <Link to Ligand in BindingDB>
http://www.bindingdb.org/bind/chemsearch/marvin/MolStructure.jsp?monomerid=50144606

> <Link to Ligand-Target Pair in BindingDB>
http://www.bindingdb.org/jsp/dbsearch/PrimarySearch_ki.jsp?energyterm=kJ/mole&tag=r21&monomerid=50144606&enzyme=Epidermal+growth+factor+receptor&column=ki&startPg=0&Increment=50&submit=Search

> <Ligand HET ID in PDB>


> <PDB ID(s) for Ligand-Target Complex>


> <PubChem CID>
44312149

> <PubChem SID>
104033684

> <ChEBI ID of Ligand>


> <ChEMBL ID of Ligand>
CHEMBL3759203

> <DrugBank ID of Ligand>


> <IUPHAR_GRAC ID of Ligand>


> <KEGG ID of Ligand>


> <ZINC ID of Ligand>
ZINC36332177

> <Number of Protein Chains in Target (>
1

> <BindingDB Target Chain Sequence>
MRPSGTAGAALLALLAALCPASRALEEKKVCQGTSNKLTQLGTFEDHFLSLQRMFNNCEVVLGNLEITYVQRNYDLSFLKTIQEVAGYVLIALNTVERIPLENLQIIRGNMYYENSYALAVLSNYDANKTGLKELPMRNLQEILHGAVRFSNNPALCNVESIQWRDIVSSDFLSNMSMDFQNHLGSCQKCDPSCPNGSCWGAGEENCQKLTKIICAQQCSGRCRGKSPSDCCHNQCAAGCTGPRESDCLVCRKFRDEATCKDTCPPLMLYNPTTYQMDVNPEGKYSFGATCVKKCPRNYVVTDHGSCVRACGADSYEMEEDGVRKCKKCEGPCRKVCNGIGIGEFKDSLSINATNIKHFKNCTSISGDLHILPVAFRGDSFTHTPPLDPQELDILKTVKEITGFLLIQAWPENRTDLHAFENLEIIRGRTKQHGQFSLAVVSLNITSLGLRSLKEISDGDVIISGNKNLCYANTINWKKLFGTSGQKTKIISNRGENSCKATGQVCHALCSPEGCWGPEPRDCVSCRNVSRGRECVDKCNLLEGEPREFVENSECIQCHPECLPQAMNITCTGRGPDNCIQCAHYIDGPHCVKTCPAGVMGENNTLVWKYADAGHVCHLCHPNCTYGCTGPGLEGCPTNGPKIPSIATGMVGALLLLLVVALGIGLFMRRRHIVRKRTLRRLLQERELVEPLTPSGEAPNQALLRILKETEFKKIKVLGSGAFGTVYKGLWIPEGEKVKIPVAIKELREATSPKANKEILDEAYVMASVDNPHVCRLLGICLTSTVQLITQLMPFGCLLDYVREHKDNIGSQYLLNWCVQIAKGMNYLEDRRLVHRDLAARNVLVKTPQHVKITDFGLAKLLGAEEKEYHAEGGKVPIKWMALESILHRIYTHQSDVWSYGVTVWELMTFGSKPYDGIPASEISSILEKGERLPQPPICTIDVYMIMVKCWMIDADSRPKFRELIIEFSKMARDPQRYLVIQGDERMHLPSPTDSNFYRALMDEEDMDDVVDADEYLIPQQGFFSSPSTSRTPLLSSLSATSNNSTVACIDRNGLQSCPIKEDSFLQRYSSDPTGALTEDSIDDTFLPVPEYINQSVPKRPAGSVQNPVYHNQPLNPAPSRDPHYQDPHSTAVGNPEYLNTVQPTCVNSTFDSPAHWAQKGSHQISLDNPDYQQDFFPKEAKPNGIFKGSTAENAEYLRVAPQSSEFIGA

> <PDB ID(s) of Target Chain>
1IVO,1M14,1M17,1MOX,1XKK,1Z9I,2GS2,2GS6,2ITW,2ITX,2ITY,2J5E,2J5F,2J6M,2RF9,2RGP,3B2V,3BEL,3GOP,3POZ,3QWQ,3VJO,3W2O,3W2P,3W2Q,3W2R,3W2S,3W32,3W33,4G5J,4I23,4JQ7,4JQ8,4JR3,4JRV,4KRO,4LI5,4RJ4,4RJ5,4RJ6,4RJ7,4RJ8,4TKS,4UIP,4UV7,4WKQ,4WRG,4ZAU,5C8K,5C8M,5C8N,5CAL,5CAN,5CAO,5CAP,5CAQ,5CAS,5CAU,5CAV,5EDP,5EDQ,5EDR,5EM5,5EM6,5EM7,5EM8,5FED,5GNK,5HCX,5HCY,5HCZ,5HIB,5HIC,5UGB,5WB7,5WB8,5Y25,6S89,6S8A

> <UniProt (SwissProt) Recommended Name of Target Chain>
Epidermal growth factor receptor

> <UniProt (SwissProt) Entry Name of Target Chain>
EGFR_HUMAN

> <UniProt (SwissProt) Primary ID of Target Chain>
P00533

> <UniProt (SwissProt) Secondary ID(s) of Target Chain>
O00688,O00732,P06268,Q14225,Q68GS5,Q92795,Q9BZS2,Q9GZX1,Q9H2C9,Q9H3C9,Q9UMD7,Q9UMD8,Q9UMG5

> <UniProt (SwissProt) Alternative ID(s) of Target Chain>


> <UniProt (TrEMBL) Submitted Name of Target Chain>


> <UniProt (TrEMBL) Entry Name of Target Chain>


> <UniProt (TrEMBL) Primary ID of Target Chain>


> <UniProt (TrEMBL) Secondary ID(s) of Target Chain>


> <UniProt (TrEMBL) Alternative ID(s) of Target Chain>


> <training label>
6.13668

> <i_lp_mmshare_version>
54117

> <s_epik_input>
W09IXVtDSDJdW0NAQEhdKE8xKVtDQEhdKFtPSF0pW0NAQEhdKFtPSF0pW0NAQEhdMW4yW2NIXW5jKGMyMyljKG5bY0hdbjMpU1tDSDJdYyhbY0hdW2NIXTQpW2NIXVtjSF1jNEk=

> <s_epik_cmdline>
J2VwaWtfcHl0aG9uJywgJy1waHQnLCAnMC4xJywgJy1waCcsICc3LjQnLCAnLXRuJywgJzgnLCAnLW1hJywgJzIwMCcsICctaW1hZScsICc8aW5maWxlLm1hZT4nLCAnLW9tYWUnLCAnPG91dGZpbGUubWFlPic=

> <r_lp_tautomer_probability>
1

> <r_epik_Ionization_Penalty>
  0.0001

> <r_epik_Ionization_Penalty_Charging>
  0.0000

> <r_epik_Ionization_Penalty_Neutral>
  0.0001

> <r_epik_State_Penalty>
  0.0000

> <r_epik_Charging_Adjusted_Penalty>
0

> <i_epik_Tot_Q>
0

> <i_epik_Tot_abs_Q>
0

> <i_f3d_flags>
0

> <s_lp_Force_Field>
OPLS_2005

> <r_lp_Energy>
34.966343

> <b_lp_Chiralities_Consistent>
1

> <s_lp_Variant>
BindingDB_50144606_mol_1-16

> <s_i_glide_gridfile>
struct_1_site_1

> <i_i_glide_lignum>
95

> <i_i_glide_rotatable_bonds>
8

> <r_i_docking_score>
-6.83489719285182

> <r_i_glide_ligand_efficiency>
-0.253144340475993

> <r_i_glide_ligand_efficiency_sa>
-0.759433020593658

> <r_i_glide_ligand_efficiency_ln>
-1.5910513844091

> <r_i_glide_gscore>
-6.83489719285182

> <r_i_glide_lipo>
-2.19847539510301

> <r_i_glide_hbond>
-0.0468301088703769

> <r_i_glide_metal>
0

> <r_i_glide_rewards>
-2.02345801945363

> <r_i_glide_evdw>
-39.5568161010742

> <r_i_glide_ecoul>
-6.64106559753418

> <r_i_glide_erotb>
0.407866975259027

> <r_i_glide_esite>
0

> <r_i_glide_emodel>
-38.4682031791931

> <r_i_glide_energy>
-46.1978816986084

> <r_i_glide_einternal>
6.06874847412109

> <i_i_glide_confnum>
58

> <i_i_glide_posenum>
279

> <r_i_glide_eff_state_penalty>
0

> <PMID>
26826581

> <s_epik_Chemistry_Notes>
This compound contains an acetal/aminal-like group ( X-CH(R)-Y where X, Y are N, S, or O) that may be acid/base labile, releasing an aldehyde.

> <r_glide_shape_similarity>
0.756287395954132

> <s_m_subgroup_title>
505 training

> <s_m_subgroupid>
pocket_pv

> <b_m_subgroup_collapsed>
0

$$$$
BindingDB_50144606_mol_1
                    3D
 Schrodinger Suite 2021-2.
 44 47  0  0  1  0            999 V2000
   24.8128    0.6666   53.0551 N   0  0  0  0  0  0
   26.2498    0.6411   52.7221 C   0  0  1  0  0  0
   24.1399   -0.1153   53.9602 C   0  0  0  0  0  0
   22.7726    0.0485   53.6553 C   0  0  0  0  0  0
   22.5976    1.0257   52.6959 N   0  0  0  0  0  0
   27.0108    1.7642   53.3609 C   0  0  1  0  0  0
   23.8537    1.3457   52.4109 C   0  0  0  0  0  0
   26.7869   -0.5451   53.1553 O   0  0  0  0  0  0
   28.3649    1.1170   53.5001 C   0  0  2  0  0  0
   28.0043   -0.3297   53.8184 C   0  0  2  0  0  0
   21.9141   -0.8064   54.3618 C   0  0  0  0  0  0
   24.6478   -0.9502   54.9017 N   0  0  0  0  0  0
   22.3806   -1.6667   55.2748 N   0  0  0  0  0  0
   20.2252   -0.8438   54.1516 S   0  0  0  0  0  0
   23.6912   -1.6585   55.4961 C   0  0  0  0  0  0
   27.1211    2.8148   52.4544 O   0  0  0  0  0  0
   29.0904    1.7009   54.5648 O   0  0  0  0  0  0
   19.8105   -0.0563   52.5690 C   0  0  0  0  0  0
   15.5146   -0.0717   52.4024 C   0  0  0  0  0  0
   18.3164   -0.1527   52.3726 C   0  0  0  0  0  0
   28.9312   -1.3948   53.2505 C   0  0  0  0  0  0
   13.4615    0.0381   52.6649 I   0  0  0  0  0  0
   16.1869   -1.1817   52.9162 C   0  0  0  0  0  0
   16.2308    0.9566   51.7826 C   0  0  0  0  0  0
   17.5845   -1.2378   52.8872 C   0  0  0  0  0  0
   17.6370    0.9127   51.7659 C   0  0  0  0  0  0
   30.2296   -1.2936   53.7754 O   0  0  0  0  0  0
   26.2882    0.6536   51.6298 H   0  0  0  0  0  0
   26.5619    2.0474   54.3115 H   0  0  0  0  0  0
   24.0834    2.0437   51.6140 H   0  0  0  0  0  0
   28.9406    1.1752   52.5747 H   0  0  0  0  0  0
   27.8268   -0.4677   54.8867 H   0  0  0  0  0  0
   24.0442   -2.4095   56.1763 H   0  0  0  0  0  0
   27.1111    3.6461   52.9265 H   0  0  0  0  0  0
   29.9319    1.9793   54.2286 H   0  0  0  0  0  0
   20.0607    1.0039   52.6276 H   0  0  0  0  0  0
   20.3501   -0.4647   51.7195 H   0  0  0  0  0  0
   29.0063   -1.2733   52.1746 H   0  0  0  0  0  0
   28.5377   -2.3956   53.4424 H   0  0  0  0  0  0
   15.6211   -1.9773   53.3747 H   0  0  0  0  0  0
   15.7118    1.8157   51.3785 H   0  0  0  0  0  0
   18.0630   -2.1033   53.3307 H   0  0  0  0  0  0
   18.1815    1.7568   51.3691 H   0  0  0  0  0  0
   30.5402   -0.4022   53.6403 H   0  0  0  0  0  0
  1  2  1  0  0  0
  1  3  1  0  0  0
  1  7  1  0  0  0
  2  6  1  0  0  0
  2  8  1  0  0  0
  2 28  1  0  0  0
  3  4  2  0  0  0
  3 12  1  0  0  0
  4 11  1  0  0  0
  4  5  1  0  0  0
  5  7  2  0  0  0
  6  9  1  0  0  0
  6 16  1  0  0  0
  6 29  1  0  0  0
  7 30  1  0  0  0
  8 10  1  0  0  0
  9 17  1  0  0  0
  9 10  1  0  0  0
  9 31  1  0  0  0
 10 21  1  0  0  0
 10 32  1  0  0  0
 11 14  1  0  0  0
 11 13  2  0  0  0
 12 15  2  0  0  0
 13 15  1  0  0  0
 14 18  1  0  0  0
 15 33  1  0  0  0
 16 34  1  0  0  0
 17 35  1  0  0  0
 18 20  1  0  0  0
 18 36  1  0  0  0
 18 37  1  0  0  0
 19 24  2  0  0  0
 19 22  1  0  0  0
 19 23  1  0  0  0
 20 25  1  0  0  0
 20 26  2  0  0  0
 21 27  1  0  0  0
 21 38  1  0  0  0
 21 39  1  0  0  0
 23 25  2  0  0  0
 23 40  1  0  0  0
 24 26  1  0  0  0
 24 41  1  0  0  0
 25 42  1  0  0  0
 26 43  1  0  0  0
 27 44  1  0  0  0
M  END
> <s_m_entry_id>
391

> <s_m_entry_name>
pocket_pv.202

> <s_m_Source_Path>
/home/bortolaa/Project/GT/mario-master/docking/set505protein_struct_1_site_1_set505ligs_train

> <s_m_Source_File>
pocket_pv.maegz

> <i_m_Source_File_Index>
202

> <From>
www.bindingDB.org

> <BindingDB Reactant_set_id>
50463846

> <Ligand InChI>
InChI=1S/C29H23ClN4O3/c1-36-26-15-23-25(16-27(26)37-17-19-7-3-2-4-8-19)31-18-32-28(23)33-20-11-13-21(14-12-20)34-29(35)22-9-5-6-10-24(22)30/h2-16,18H,17H2,1H3,(H,34,35)(H,31,32,33)

> <Ligand InChI Key>
JASSTMZJDQXQFP-UHFFFAOYSA-N

> <BindingDB MonomerID>
50144606

> <BindingDB Ligand Name>
CHEMBL3759203

> <Target Name Assigned by Curator or DataSource>
Epidermal growth factor receptor

> <Target Source Organism According to Curator or DataSource>
Homo sapiens

> <Ki (nM)>


> <IC50 (nM)>
730

> <Kd (nM)>


> <EC50 (nM)>


> <kon (M-1-s-1)>


> <koff (s-1)>


> <pH>


> <Temp C>


> <Curation/DataSource>
ChEMBL

> <Article DOI>
10.1016/j.ejmech.2015.12.032

> <PubChem AID>


> <Patent Number>


> <Authors>
Zhang, HQ; Gong, FH; Li, CG; Zhang, C; Wang, YJ; Xu, YG; Sun, LP

> <Institution>
China Pharmaceutical University

> <Link to Ligand in BindingDB>
http://www.bindingdb.org/bind/chemsearch/marvin/MolStructure.jsp?monomerid=50144606

> <Link to Ligand-Target Pair in BindingDB>
http://www.bindingdb.org/jsp/dbsearch/PrimarySearch_ki.jsp?energyterm=kJ/mole&tag=r21&monomerid=50144606&enzyme=Epidermal+growth+factor+receptor&column=ki&startPg=0&Increment=50&submit=Search

> <Ligand HET ID in PDB>


> <PDB ID(s) for Ligand-Target Complex>


> <PubChem CID>
44312149

> <PubChem SID>
104033684

> <ChEBI ID of Ligand>


> <ChEMBL ID of Ligand>
CHEMBL3759203

> <DrugBank ID of Ligand>


> <IUPHAR_GRAC ID of Ligand>


> <KEGG ID of Ligand>


> <ZINC ID of Ligand>
ZINC36332177

> <Number of Protein Chains in Target (>
1

> <BindingDB Target Chain Sequence>
MRPSGTAGAALLALLAALCPASRALEEKKVCQGTSNKLTQLGTFEDHFLSLQRMFNNCEVVLGNLEITYVQRNYDLSFLKTIQEVAGYVLIALNTVERIPLENLQIIRGNMYYENSYALAVLSNYDANKTGLKELPMRNLQEILHGAVRFSNNPALCNVESIQWRDIVSSDFLSNMSMDFQNHLGSCQKCDPSCPNGSCWGAGEENCQKLTKIICAQQCSGRCRGKSPSDCCHNQCAAGCTGPRESDCLVCRKFRDEATCKDTCPPLMLYNPTTYQMDVNPEGKYSFGATCVKKCPRNYVVTDHGSCVRACGADSYEMEEDGVRKCKKCEGPCRKVCNGIGIGEFKDSLSINATNIKHFKNCTSISGDLHILPVAFRGDSFTHTPPLDPQELDILKTVKEITGFLLIQAWPENRTDLHAFENLEIIRGRTKQHGQFSLAVVSLNITSLGLRSLKEISDGDVIISGNKNLCYANTINWKKLFGTSGQKTKIISNRGENSCKATGQVCHALCSPEGCWGPEPRDCVSCRNVSRGRECVDKCNLLEGEPREFVENSECIQCHPECLPQAMNITCTGRGPDNCIQCAHYIDGPHCVKTCPAGVMGENNTLVWKYADAGHVCHLCHPNCTYGCTGPGLEGCPTNGPKIPSIATGMVGALLLLLVVALGIGLFMRRRHIVRKRTLRRLLQERELVEPLTPSGEAPNQALLRILKETEFKKIKVLGSGAFGTVYKGLWIPEGEKVKIPVAIKELREATSPKANKEILDEAYVMASVDNPHVCRLLGICLTSTVQLITQLMPFGCLLDYVREHKDNIGSQYLLNWCVQIAKGMNYLEDRRLVHRDLAARNVLVKTPQHVKITDFGLAKLLGAEEKEYHAEGGKVPIKWMALESILHRIYTHQSDVWSYGVTVWELMTFGSKPYDGIPASEISSILEKGERLPQPPICTIDVYMIMVKCWMIDADSRPKFRELIIEFSKMARDPQRYLVIQGDERMHLPSPTDSNFYRALMDEEDMDDVVDADEYLIPQQGFFSSPSTSRTPLLSSLSATSNNSTVACIDRNGLQSCPIKEDSFLQRYSSDPTGALTEDSIDDTFLPVPEYINQSVPKRPAGSVQNPVYHNQPLNPAPSRDPHYQDPHSTAVGNPEYLNTVQPTCVNSTFDSPAHWAQKGSHQISLDNPDYQQDFFPKEAKPNGIFKGSTAENAEYLRVAPQSSEFIGA

> <PDB ID(s) of Target Chain>
1IVO,1M14,1M17,1MOX,1XKK,1Z9I,2GS2,2GS6,2ITW,2ITX,2ITY,2J5E,2J5F,2J6M,2RF9,2RGP,3B2V,3BEL,3GOP,3POZ,3QWQ,3VJO,3W2O,3W2P,3W2Q,3W2R,3W2S,3W32,3W33,4G5J,4I23,4JQ7,4JQ8,4JR3,4JRV,4KRO,4LI5,4RJ4,4RJ5,4RJ6,4RJ7,4RJ8,4TKS,4UIP,4UV7,4WKQ,4WRG,4ZAU,5C8K,5C8M,5C8N,5CAL,5CAN,5CAO,5CAP,5CAQ,5CAS,5CAU,5CAV,5EDP,5EDQ,5EDR,5EM5,5EM6,5EM7,5EM8,5FED,5GNK,5HCX,5HCY,5HCZ,5HIB,5HIC,5UGB,5WB7,5WB8,5Y25,6S89,6S8A

> <UniProt (SwissProt) Recommended Name of Target Chain>
Epidermal growth factor receptor

> <UniProt (SwissProt) Entry Name of Target Chain>
EGFR_HUMAN

> <UniProt (SwissProt) Primary ID of Target Chain>
P00533

> <UniProt (SwissProt) Secondary ID(s) of Target Chain>
O00688,O00732,P06268,Q14225,Q68GS5,Q92795,Q9BZS2,Q9GZX1,Q9H2C9,Q9H3C9,Q9UMD7,Q9UMD8,Q9UMG5

> <UniProt (SwissProt) Alternative ID(s) of Target Chain>


> <UniProt (TrEMBL) Submitted Name of Target Chain>


> <UniProt (TrEMBL) Entry Name of Target Chain>


> <UniProt (TrEMBL) Primary ID of Target Chain>


> <UniProt (TrEMBL) Secondary ID(s) of Target Chain>


> <UniProt (TrEMBL) Alternative ID(s) of Target Chain>


> <training label>
6.13668

> <i_lp_mmshare_version>
54117

> <s_epik_input>
W09IXVtDSDJdW0NASF0oTzEpW0NASF0oW09IXSlbQ0BASF0oW09IXSlbQ0BASF0xbjJbY0hdbmMoYzIzKWMobltjSF1uMylTW0NIMl1jKFtjSF1bY0hdNClbY0hdW2NIXWM0SQ==

> <s_epik_cmdline>
J2VwaWtfcHl0aG9uJywgJy1waHQnLCAnMC4xJywgJy1waCcsICc3LjQnLCAnLXRuJywgJzgnLCAnLW1hJywgJzIwMCcsICctaW1hZScsICc8aW5maWxlLm1hZT4nLCAnLW9tYWUnLCAnPG91dGZpbGUubWFlPic=

> <r_lp_tautomer_probability>
1

> <r_epik_Ionization_Penalty>
  0.0001

> <r_epik_Ionization_Penalty_Charging>
  0.0000

> <r_epik_Ionization_Penalty_Neutral>
  0.0001

> <r_epik_State_Penalty>
  0.0000

> <r_epik_Charging_Adjusted_Penalty>
0

> <i_epik_Tot_Q>
0

> <i_epik_Tot_abs_Q>
0

> <i_f3d_flags>
0

> <s_lp_Force_Field>
OPLS_2005

> <r_lp_Energy>
32.030365

> <b_lp_Chiralities_Consistent>
1

> <s_lp_Variant>
BindingDB_50144606_mol_1-8

> <s_i_glide_gridfile>
struct_1_site_1

> <i_i_glide_lignum>
87

> <i_i_glide_rotatable_bonds>
8

> <r_i_docking_score>
-6.8202116789716

> <r_i_glide_ligand_efficiency>
-0.252600432554504

> <r_i_glide_ligand_efficiency_sa>
-0.757801296830982

> <r_i_glide_ligand_efficiency_ln>
-1.5876328388874

> <r_i_glide_gscore>
-6.8202116789716

> <r_i_glide_lipo>
-2.4210376442089

> <r_i_glide_hbond>
-0.131088360647611

> <r_i_glide_metal>
0

> <r_i_glide_rewards>
-1.57426652934086

> <r_i_glide_evdw>
-43.6161231994629

> <r_i_glide_ecoul>
-6.13919973373413

> <r_i_glide_erotb>
0.407866975259027

> <r_i_glide_esite>
0

> <r_i_glide_emodel>
-45.4372088109003

> <r_i_glide_energy>
-49.755322933197

> <r_i_glide_einternal>
5.21487855911255

> <i_i_glide_confnum>
31

> <i_i_glide_posenum>
240

> <r_i_glide_eff_state_penalty>
0

> <PMID>
26826581

> <s_epik_Chemistry_Notes>
This compound contains an acetal/aminal-like group ( X-CH(R)-Y where X, Y are N, S, or O) that may be acid/base labile, releasing an aldehyde.

> <r_glide_shape_similarity>
0.764853537082672

> <s_m_subgroup_title>
505 training

> <s_m_subgroupid>
pocket_pv

> <b_m_subgroup_collapsed>
0

$$$$
BindingDB_3562_mol_1
                    3D
 Schrodinger Suite 2021-2.
 38 40  0  0  1  0            999 V2000
   21.4629    0.8026   52.1498 C   0  0  0  0  0  0
   21.9958    0.0366   53.1970 C   0  0  0  0  0  0
   21.1599   -0.8390   53.9327 C   0  0  0  0  0  0
   23.3617    0.0797   53.5633 C   0  0  0  0  0  0
   22.9523   -1.4411   55.1407 C   0  0  0  0  0  0
   23.8237   -0.6899   54.5342 N   0  0  0  0  0  0
   21.6615   -1.5928   54.9235 N   0  0  0  0  0  0
   24.2980    0.9507   53.0078 N   0  0  0  0  0  0
   23.9046    1.7786   52.5972 H   0  0  0  0  0  0
   25.6827    0.9917   53.2379 C   0  0  0  0  0  0
   27.8963   -0.0447   53.3803 C   0  0  0  0  0  0
   26.4984   -0.1611   53.2827 C   0  0  0  0  0  0
   26.2880    2.2511   53.3368 C   0  0  0  0  0  0
   28.4896    1.2221   53.4499 C   0  0  0  0  0  0
   20.0960    0.7069   51.8245 C   0  0  0  0  0  0
   19.2523   -0.1227   52.5774 C   0  0  0  0  0  0
   27.6804    2.3655   53.4334 C   0  0  0  0  0  0
   19.7925   -0.8951   53.6269 C   0  0  0  0  0  0
   17.9241   -0.1181   52.2148 O   0  0  0  0  0  0
   16.9994   -0.8272   53.0125 C   0  0  0  0  0  0
   19.5084    1.4010   50.7945 O   0  0  0  0  0  0
   20.3367    1.9388   49.7815 C   0  0  0  0  0  0
   28.9839   -1.5962   53.3747 Br  0  0  0  0  0  0
   23.4878   -2.0661   56.1745 N   0  0  0  0  0  0
   22.1121    1.4548   51.5872 H   0  0  0  0  0  0
   26.0610   -1.1446   53.1909 H   0  0  0  0  0  0
   25.6940    3.1549   53.3054 H   0  0  0  0  0  0
   29.5645    1.3177   53.5182 H   0  0  0  0  0  0
   28.1320    3.3453   53.4923 H   0  0  0  0  0  0
   19.1694   -1.5465   54.2199 H   0  0  0  0  0  0
   15.9899   -0.6471   52.6426 H   0  0  0  0  0  0
   17.1825   -1.9021   52.9674 H   0  0  0  0  0  0
   17.0308   -0.5027   54.0545 H   0  0  0  0  0  0
   19.7153    2.2891   48.9569 H   0  0  0  0  0  0
   21.0217    1.1890   49.3822 H   0  0  0  0  0  0
   20.9083    2.7920   50.1489 H   0  0  0  0  0  0
   24.4871   -2.0314   56.2955 H   0  0  0  0  0  0
   22.9866   -2.7760   56.6789 H   0  0  0  0  0  0
  1  2  1  0  0  0
  1 15  2  0  0  0
  1 25  1  0  0  0
  2  3  1  0  0  0
  2  4  2  0  0  0
  3  7  2  0  0  0
  3 18  1  0  0  0
  4  6  1  0  0  0
  4  8  1  0  0  0
  5  6  2  0  0  0
  5  7  1  0  0  0
  5 24  1  0  0  0
  8  9  1  0  0  0
  8 10  1  0  0  0
 10 12  2  0  0  0
 10 13  1  0  0  0
 11 12  1  0  0  0
 11 14  2  0  0  0
 11 23  1  0  0  0
 12 26  1  0  0  0
 13 17  2  0  0  0
 13 27  1  0  0  0
 14 17  1  0  0  0
 14 28  1  0  0  0
 15 16  1  0  0  0
 15 21  1  0  0  0
 16 18  2  0  0  0
 16 19  1  0  0  0
 17 29  1  0  0  0
 18 30  1  0  0  0
 19 20  1  0  0  0
 20 31  1  0  0  0
 20 32  1  0  0  0
 20 33  1  0  0  0
 21 22  1  0  0  0
 22 34  1  0  0  0
 22 35  1  0  0  0
 22 36  1  0  0  0
 24 37  1  0  0  0
 24 38  1  0  0  0
M  END
> <s_m_entry_id>
392

> <s_m_entry_name>
pocket_pv.203

> <s_m_Source_Path>
/home/bortolaa/Project/GT/mario-master/docking/set505protein_struct_1_site_1_set505ligs_train

> <s_m_Source_File>
pocket_pv.maegz

> <i_m_Source_File_Index>
203

> <From>
www.bindingDB.org

> <BindingDB Reactant_set_id>
5324

> <Ligand InChI>
InChI=1S/C16H15BrN4O2/c1-22-13-7-11-12(8-14(13)23-2)20-16(18)21-15(11)19-10-5-3-4-9(17)6-10/h3-8H,1-2H3,(H3,18,19,20,21)

> <Ligand InChI Key>
WYYHXJFKSMRPCR-UHFFFAOYSA-N

> <BindingDB MonomerID>
3562

> <BindingDB Ligand Name>
2-Amino-4-[(3-bromophenyl)amino]-6,7-dimethoxyquinazoline Trihydrochloride::4-N-(3-bromophenyl)-6,7-dimethoxyquinazoline-2,4-diamine::CHEMBL93295::PD153035 Analog::PD153035 Analog 62

> <Target Name Assigned by Curator or DataSource>
Epidermal growth factor receptor

> <Target Source Organism According to Curator or DataSource>
Homo sapiens

> <Ki (nM)>


> <Kd (nM)>


> <EC50 (nM)>


> <kon (M-1-s-1)>


> <koff (s-1)>


> <pH>


> <Temp C>


> <Curation/DataSource>
Curated from the literature by BindingDB

> <Article DOI>
10.1021/bi060184f

> <PMID>


> <PubChem AID>


> <Patent Number>


> <Authors>
Bridges, AJ; Zhou, HR; Cody, DR; Rewcastle, GW; McMichael, A; Showalter, HH; Fry, DW; Kraker, AJ; Denny, WA

> <Institution>
Parke-Davis Pharmaceutical Research

> <Link to Ligand in BindingDB>
http://www.bindingdb.org/bind/chemsearch/marvin/MolStructure.jsp?monomerid=3562

> <Link to Ligand-Target Pair in BindingDB>
http://www.bindingdb.org/jsp/dbsearch/PrimarySearch_ki.jsp?energyterm=kJ/mole&tag=r21&monomerid=3562&enzyme=Epidermal+growth+factor+receptor&column=ki&startPg=0&Increment=50&submit=Search

> <Ligand HET ID in PDB>


> <PDB ID(s) for Ligand-Target Complex>


> <PubChem CID>
5328226

> <PubChem SID>
8033285

> <ChEBI ID of Ligand>


> <ChEMBL ID of Ligand>
CHEMBL93295

> <DrugBank ID of Ligand>


> <IUPHAR_GRAC ID of Ligand>


> <KEGG ID of Ligand>


> <ZINC ID of Ligand>
ZINC03815348

> <Number of Protein Chains in Target (>
1

> <BindingDB Target Chain Sequence>
MRPSGTAGAALLALLAALCPASRALEEKKVCQGTSNKLTQLGTFEDHFLSLQRMFNNCEVVLGNLEITYVQRNYDLSFLKTIQEVAGYVLIALNTVERIPLENLQIIRGNMYYENSYALAVLSNYDANKTGLKELPMRNLQEILHGAVRFSNNPALCNVESIQWRDIVSSDFLSNMSMDFQNHLGSCQKCDPSCPNGSCWGAGEENCQKLTKIICAQQCSGRCRGKSPSDCCHNQCAAGCTGPRESDCLVCRKFRDEATCKDTCPPLMLYNPTTYQMDVNPEGKYSFGATCVKKCPRNYVVTDHGSCVRACGADSYEMEEDGVRKCKKCEGPCRKVCNGIGIGEFKDSLSINATNIKHFKNCTSISGDLHILPVAFRGDSFTHTPPLDPQELDILKTVKEITGFLLIQAWPENRTDLHAFENLEIIRGRTKQHGQFSLAVVSLNITSLGLRSLKEISDGDVIISGNKNLCYANTINWKKLFGTSGQKTKIISNRGENSCKATGQVCHALCSPEGCWGPEPRDCVSCRNVSRGRECVDKCNLLEGEPREFVENSECIQCHPECLPQAMNITCTGRGPDNCIQCAHYIDGPHCVKTCPAGVMGENNTLVWKYADAGHVCHLCHPNCTYGCTGPGLEGCPTNGPKIPSIATGMVGALLLLLVVALGIGLFMRRRHIVRKRTLRRLLQERELVEPLTPSGEAPNQALLRILKETEFKKIKVLGSGAFGTVYKGLWIPEGEKVKIPVAIKELREATSPKANKEILDEAYVMASVDNPHVCRLLGICLTSTVQLITQLMPFGCLLDYVREHKDNIGSQYLLNWCVQIAKGMNYLEDRRLVHRDLAARNVLVKTPQHVKITDFGLAKLLGAEEKEYHAEGGKVPIKWMALESILHRIYTHQSDVWSYGVTVWELMTFGSKPYDGIPASEISSILEKGERLPQPPICTIDVYMIMVKCWMIDADSRPKFRELIIEFSKMARDPQRYLVIQGDERMHLPSPTDSNFYRALMDEEDMDDVVDADEYLIPQQGFFSSPSTSRTPLLSSLSATSNNSTVACIDRNGLQSCPIKEDSFLQRYSSDPTGALTEDSIDDTFLPVPEYINQSVPKRPAGSVQNPVYHNQPLNPAPSRDPHYQDPHSTAVGNPEYLNTVQPTCVNSTFDSPAHWAQKGSHQISLDNPDYQQDFFPKEAKPNGIFKGSTAENAEYLRVAPQSSEFIGA

> <PDB ID(s) of Target Chain>
1IVO,1M14,1M17,1MOX,1XKK,1Z9I,2GS2,2GS6,2ITW,2ITX,2ITY,2J5E,2J5F,2J6M,2RF9,2RGP,3B2V,3BEL,3GOP,3POZ,3QWQ,3VJO,3W2O,3W2P,3W2Q,3W2R,3W2S,3W32,3W33,4G5J,4I23,4JQ7,4JQ8,4JR3,4JRV,4KRO,4LI5,4RJ4,4RJ5,4RJ6,4RJ7,4RJ8,4TKS,4UIP,4UV7,4WKQ,4WRG,4ZAU,5C8K,5C8M,5C8N,5CAL,5CAN,5CAO,5CAP,5CAQ,5CAS,5CAU,5CAV,5EDP,5EDQ,5EDR,5EM5,5EM6,5EM7,5EM8,5FED,5GNK,5HCX,5HCY,5HCZ,5HIB,5HIC,5UGB,5WB7,5WB8,5Y25,6S89,6S8A

> <UniProt (SwissProt) Recommended Name of Target Chain>
Epidermal growth factor receptor

> <UniProt (SwissProt) Entry Name of Target Chain>
EGFR_HUMAN

> <UniProt (SwissProt) Primary ID of Target Chain>
P00533

> <UniProt (SwissProt) Secondary ID(s) of Target Chain>
O00688,O00732,P06268,Q14225,Q68GS5,Q92795,Q9BZS2,Q9GZX1,Q9H2C9,Q9H3C9,Q9UMD7,Q9UMD8,Q9UMG5

> <UniProt (SwissProt) Alternative ID(s) of Target Chain>


> <UniProt (TrEMBL) Submitted Name of Target Chain>


> <UniProt (TrEMBL) Entry Name of Target Chain>


> <UniProt (TrEMBL) Primary ID of Target Chain>


> <UniProt (TrEMBL) Secondary ID(s) of Target Chain>


> <UniProt (TrEMBL) Alternative ID(s) of Target Chain>


> <training label>
6.33442

> <i_lp_mmshare_version>
54117

> <s_epik_input>
W0NIM11PYyhbY0hdMSljKE9bQ0gzXSlbY0hdYyhjMTIpbmMoW05IMl0pbmMyW05IXWMzW2NIXWMoQnIpW2NIXVtjSF1bY0hdMw==

> <s_epik_cmdline>
J2VwaWtfcHl0aG9uJywgJy1waHQnLCAnMC4xJywgJy1waCcsICc3LjQnLCAnLXRuJywgJzgnLCAnLW1hJywgJzIwMCcsICctaW1hZScsICc8aW5maWxlLm1hZT4nLCAnLW9tYWUnLCAnPG91dGZpbGUubWFlPic=

> <r_epik_Ionization_Penalty>
  0.1884

> <r_epik_Ionization_Penalty_Charging>
  0.0000

> <r_epik_Ionization_Penalty_Neutral>
  0.1884

> <r_epik_State_Penalty>
  0.1756

> <r_epik_Charging_Adjusted_Penalty>
0.17563191529758

> <i_epik_Tot_Q>
0

> <i_epik_Tot_abs_Q>
0

> <i_f3d_flags>
0

> <s_lp_Force_Field>
OPLS_2005

> <r_lp_Energy>
19.229313

> <b_lp_Chiralities_Consistent>
1

> <s_lp_Variant>
BindingDB_3562_mol_1-1

> <s_i_glide_gridfile>
struct_1_site_1

> <i_i_glide_lignum>
107

> <i_i_glide_rotatable_bonds>
4

> <r_i_docking_score>
-6.81105288395492

> <r_i_glide_ligand_efficiency>
-0.296132734084997

> <r_i_glide_ligand_efficiency_sa>
-0.842162103237288

> <r_i_glide_ligand_efficiency_ln>
-1.64697434655331

> <r_i_glide_gscore>
-6.98665288395492

> <r_i_glide_lipo>
-2.8157028624397

> <r_i_glide_hbond>
-0.193472257972804

> <r_i_glide_metal>
0

> <r_i_glide_rewards>
-1.68140494278123

> <r_i_glide_evdw>
-38.8281364440918

> <r_i_glide_ecoul>
-4.02253246307373

> <r_i_glide_erotb>
0.274799284791501

> <r_i_glide_esite>
-0.0260854138870317

> <r_i_glide_emodel>
-41.1836943190942

> <r_i_glide_energy>
-42.8506689071655

> <r_i_glide_einternal>
0.217333272099495

> <i_i_glide_confnum>
1

> <i_i_glide_posenum>
352

> <r_i_glide_eff_state_penalty>
0.1756

> <IC50 (nM)>
463

> <r_glide_shape_similarity>
0.797615766525269

> <s_m_subgroup_title>
505 training

> <s_m_subgroupid>
pocket_pv

> <b_m_subgroup_collapsed>
0

$$$$
/home/bortolaa/Project/GT/mario-master/ligands/set505ligs_train.sdf:49
                    3D
 Schrodinger Suite 2021-2.
 72 74  0  0  1  0            999 V2000
   23.4424   -0.1230   53.8258 C   0  0  0  0  0  0
   24.7381    0.4179   53.6020 C   0  0  0  0  0  0
   25.7722   -0.0331   54.4619 C   0  0  0  0  0  0
   25.4941   -0.8679   55.4820 N   0  0  0  0  0  0
   24.2446   -1.3244   55.5962 C   0  0  0  0  0  0
   23.2199   -1.0148   54.8133 N   0  0  0  0  0  0
   27.0845    0.4374   54.2767 C   0  0  0  0  0  0
   27.3708    1.4357   53.3218 C   0  0  0  0  0  0
   26.3413    1.9115   52.4768 C   0  0  0  0  0  0
   25.0297    1.3806   52.6073 C   0  0  0  0  0  0
   26.6956    2.9078   51.5808 O   0  0  0  0  0  0
   25.8887    3.1551   50.4252 C   0  0  0  0  0  0
   28.6190    1.9947   53.1747 O   0  0  0  0  0  0
   29.5441    1.8293   54.2410 C   0  0  0  0  0  0
   22.3808    0.2802   53.0015 N   0  0  0  0  0  0
   21.0213   -0.0635   52.9795 C   0  0  0  0  0  0
   20.2290    0.5947   52.0137 C   0  0  0  0  0  0
   18.8437    0.3650   51.9265 C   0  0  0  0  0  0
   18.2264   -0.5314   52.8309 C   0  0  0  0  0  0
   19.0208   -1.2248   53.7707 C   0  0  0  0  0  0
   20.4057   -1.0014   53.8470 C   0  0  0  0  0  0
   16.8262   -0.7441   52.9310 N   0  0  0  0  0  0
   15.8176   -0.1395   52.2854 C   0  0  0  0  0  0
   14.6558   -0.3532   52.9248 N   0  0  0  0  0  0
   15.9207    0.4887   51.2324 O   0  0  0  0  0  0
   13.3343    0.0337   52.4436 C   0  0  0  0  0  0
   12.5394    0.7707   53.5379 C   0  0  0  0  0  0
   13.0913    2.1762   53.8497 C   0  0  0  0  0  0
   12.2709    2.9168   54.9225 C   0  0  0  0  0  0
   26.2834    4.5060   49.7751 C   0  0  0  0  0  0
   25.8859    5.7126   50.5725 N   0  3  0  0  0  0
   26.6431    6.9434   50.1663 C   0  0  0  0  0  0
   24.3995    5.9054   50.6620 C   0  0  0  0  0  0
   23.9563    7.0407   51.6032 C   0  0  0  0  0  0
   26.2593    7.5092   48.7789 C   0  0  0  0  0  0
   24.0518   -2.0204   56.3998 H   0  0  0  0  0  0
   27.8524    0.0508   54.9276 H   0  0  0  0  0  0
   24.2320    1.7346   51.9771 H   0  0  0  0  0  0
   26.0798    2.3439   49.7185 H   0  0  0  0  0  0
   24.8205    3.1427   50.6210 H   0  0  0  0  0  0
   30.2885    2.6220   54.1794 H   0  0  0  0  0  0
   29.0897    1.9273   55.2280 H   0  0  0  0  0  0
   30.0587    0.8690   54.1727 H   0  0  0  0  0  0
   22.6338    0.9691   52.3128 H   0  0  0  0  0  0
   20.6833    1.3020   51.3321 H   0  0  0  0  0  0
   18.2807    0.9164   51.1894 H   0  0  0  0  0  0
   18.5647   -1.9102   54.4693 H   0  0  0  0  0  0
   20.9324   -1.5515   54.6031 H   0  0  0  0  0  0
   16.5448   -1.3210   53.7107 H   0  0  0  0  0  0
   14.6739   -0.8463   53.8111 H   0  0  0  0  0  0
   12.8007   -0.8738   52.1589 H   0  0  0  0  0  0
   13.3923    0.6543   51.5473 H   0  0  0  0  0  0
   12.5137    0.1710   54.4488 H   0  0  0  0  0  0
   11.5029    0.8694   53.2119 H   0  0  0  0  0  0
   13.0980    2.7750   52.9377 H   0  0  0  0  0  0
   14.1286    2.1043   54.1738 H   0  0  0  0  0  0
   12.6788    3.9103   55.1109 H   0  0  0  0  0  0
   12.2737    2.3699   55.8640 H   0  0  0  0  0  0
   11.2319    3.0390   54.6086 H   0  0  0  0  0  0
   27.3625    4.5071   49.6257 H   0  0  0  0  0  0
   25.8388    4.5756   48.7819 H   0  0  0  0  0  0
   26.5122    7.7132   50.9297 H   0  0  0  0  0  0
   27.7110    6.7316   50.1709 H   0  0  0  0  0  0
   23.9874    6.0669   49.6668 H   0  0  0  0  0  0
   23.9353    4.9985   51.0392 H   0  0  0  0  0  0
   22.8699    7.0758   51.6742 H   0  0  0  0  0  0
   24.3397    6.8853   52.6103 H   0  0  0  0  0  0
   24.2841    8.0239   51.2671 H   0  0  0  0  0  0
   26.8742    8.3770   48.5398 H   0  0  0  0  0  0
   26.4075    6.7781   47.9863 H   0  0  0  0  0  0
   25.2213    7.8399   48.7464 H   0  0  0  0  0  0
   26.2182    5.5353   51.5323 H   0  0  0  0  0  0
  1  2  2  0  0  0
  1  6  1  0  0  0
  1 15  1  0  0  0
  2 10  1  0  0  0
  2  3  1  0  0  0
  3  4  2  0  0  0
  3  7  1  0  0  0
  4  5  1  0  0  0
  5  6  2  0  0  0
  5 36  1  0  0  0
  7  8  2  0  0  0
  7 37  1  0  0  0
  8  9  1  0  0  0
  8 13  1  0  0  0
  9 10  2  0  0  0
  9 11  1  0  0  0
 10 38  1  0  0  0
 11 12  1  0  0  0
 12 30  1  0  0  0
 12 39  1  0  0  0
 12 40  1  0  0  0
 13 14  1  0  0  0
 14 41  1  0  0  0
 14 42  1  0  0  0
 14 43  1  0  0  0
 15 16  1  0  0  0
 15 44  1  0  0  0
 16 17  2  0  0  0
 16 21  1  0  0  0
 17 18  1  0  0  0
 17 45  1  0  0  0
 18 19  2  0  0  0
 18 46  1  0  0  0
 19 20  1  0  0  0
 19 22  1  0  0  0
 20 21  2  0  0  0
 20 47  1  0  0  0
 21 48  1  0  0  0
 22 23  1  0  0  0
 22 49  1  0  0  0
 23 24  1  0  0  0
 23 25  2  0  0  0
 24 26  1  0  0  0
 24 50  1  0  0  0
 26 27  1  0  0  0
 26 51  1  0  0  0
 26 52  1  0  0  0
 27 28  1  0  0  0
 27 53  1  0  0  0
 27 54  1  0  0  0
 28 29  1  0  0  0
 28 55  1  0  0  0
 28 56  1  0  0  0
 29 57  1  0  0  0
 29 58  1  0  0  0
 29 59  1  0  0  0
 30 31  1  0  0  0
 30 60  1  0  0  0
 30 61  1  0  0  0
 31 32  1  0  0  0
 31 33  1  0  0  0
 31 72  1  0  0  0
 32 35  1  0  0  0
 32 62  1  0  0  0
 32 63  1  0  0  0
 33 34  1  0  0  0
 33 64  1  0  0  0
 33 65  1  0  0  0
 34 66  1  0  0  0
 34 67  1  0  0  0
 34 68  1  0  0  0
 35 69  1  0  0  0
 35 70  1  0  0  0
 35 71  1  0  0  0
M  CHG  1  31   1
M  END
> <s_m_entry_id>
393

> <s_m_entry_name>
pocket_pv.204

> <s_m_Source_Path>
/home/bortolaa/Project/GT/mario-master/docking/set505protein_struct_1_site_1_set505ligs_train

> <s_m_Source_File>
pocket_pv.maegz

> <i_m_Source_File_Index>
204

> <From>
www.bindingDB.org

> <BindingDB Reactant_set_id>
406598

> <Ligand InChI>
InChI=1S/C26H36N6O3/c1-5-8-13-27-26(33)31-20-11-9-19(10-12-20)30-25-21-16-24(35-15-14-32(6-2)7-3)23(34-4)17-22(21)28-18-29-25/h9-12,16-18H,5-8,13-15H2,1-4H3,(H2,27,31,33)(H,28,29,30)

> <Ligand InChI Key>
WSHVKPNXWGOOIN-UHFFFAOYSA-N

> <BindingDB MonomerID>
233110

> <BindingDB Ligand Name>
N-{4-[6-(2-Diethylaminoethoxy)-7-methoxy-quinazolin-4-ylamino]phenyl}-N&#39;-butylurea hydrochloride (19h)

> <Target Name Assigned by Curator or DataSource>
Epidermal growth factor receptor

> <Target Source Organism According to Curator or DataSource>
Homo sapiens

> <Ki (nM)>


> <IC50 (nM)>
3400

> <Kd (nM)>


> <EC50 (nM)>


> <kon (M-1-s-1)>


> <koff (s-1)>


> <Temp C>


> <Curation/DataSource>
Curated from the literature by BindingDB

> <Article DOI>
10.3109/14756360903169485

> <PubChem AID>


> <Patent Number>


> <Authors>
Garofalo, A; Goossens, L; Lemoine, A; Farce, A; Arlot, Y; Depreux, P

> <Institution>
Université Lille Nord de France

> <Link to Ligand in BindingDB>
http://www.bindingdb.org/bind/chemsearch/marvin/MolStructure.jsp?monomerid=233110

> <Link to Ligand-Target Pair in BindingDB>
http://www.bindingdb.org/jsp/dbsearch/PrimarySearch_ki.jsp?energyterm=kJ/mole&tag=r21&monomerid=233110&enzyme=Epidermal+growth+factor+receptor&column=ki&startPg=0&Increment=50&submit=Search

> <Ligand HET ID in PDB>


> <PDB ID(s) for Ligand-Target Complex>


> <PubChem CID>
129010608

> <PubChem SID>
340093204

> <ChEBI ID of Ligand>


> <ChEMBL ID of Ligand>


> <DrugBank ID of Ligand>


> <IUPHAR_GRAC ID of Ligand>


> <KEGG ID of Ligand>


> <ZINC ID of Ligand>


> <Number of Protein Chains in Target (>
1

> <BindingDB Target Chain Sequence>
MRPSGTAGAALLALLAALCPASRALEEKKVCQGTSNKLTQLGTFEDHFLSLQRMFNNCEVVLGNLEITYVQRNYDLSFLKTIQEVAGYVLIALNTVERIPLENLQIIRGNMYYENSYALAVLSNYDANKTGLKELPMRNLQEILHGAVRFSNNPALCNVESIQWRDIVSSDFLSNMSMDFQNHLGSCQKCDPSCPNGSCWGAGEENCQKLTKIICAQQCSGRCRGKSPSDCCHNQCAAGCTGPRESDCLVCRKFRDEATCKDTCPPLMLYNPTTYQMDVNPEGKYSFGATCVKKCPRNYVVTDHGSCVRACGADSYEMEEDGVRKCKKCEGPCRKVCNGIGIGEFKDSLSINATNIKHFKNCTSISGDLHILPVAFRGDSFTHTPPLDPQELDILKTVKEITGFLLIQAWPENRTDLHAFENLEIIRGRTKQHGQFSLAVVSLNITSLGLRSLKEISDGDVIISGNKNLCYANTINWKKLFGTSGQKTKIISNRGENSCKATGQVCHALCSPEGCWGPEPRDCVSCRNVSRGRECVDKCNLLEGEPREFVENSECIQCHPECLPQAMNITCTGRGPDNCIQCAHYIDGPHCVKTCPAGVMGENNTLVWKYADAGHVCHLCHPNCTYGCTGPGLEGCPTNGPKIPSIATGMVGALLLLLVVALGIGLFMRRRHIVRKRTLRRLLQERELVEPLTPSGEAPNQALLRILKETEFKKIKVLGSGAFGTVYKGLWIPEGEKVKIPVAIKELREATSPKANKEILDEAYVMASVDNPHVCRLLGICLTSTVQLITQLMPFGCLLDYVREHKDNIGSQYLLNWCVQIAKGMNYLEDRRLVHRDLAARNVLVKTPQHVKITDFGLAKLLGAEEKEYHAEGGKVPIKWMALESILHRIYTHQSDVWSYGVTVWELMTFGSKPYDGIPASEISSILEKGERLPQPPICTIDVYMIMVKCWMIDADSRPKFRELIIEFSKMARDPQRYLVIQGDERMHLPSPTDSNFYRALMDEEDMDDVVDADEYLIPQQGFFSSPSTSRTPLLSSLSATSNNSTVACIDRNGLQSCPIKEDSFLQRYSSDPTGALTEDSIDDTFLPVPEYINQSVPKRPAGSVQNPVYHNQPLNPAPSRDPHYQDPHSTAVGNPEYLNTVQPTCVNSTFDSPAHWAQKGSHQISLDNPDYQQDFFPKEAKPNGIFKGSTAENAEYLRVAPQSSEFIGA

> <PDB ID(s) of Target Chain>
1IVO,1M14,1M17,1MOX,1XKK,1Z9I,2GS2,2GS6,2ITW,2ITX,2ITY,2J5E,2J5F,2J6M,2RF9,2RGP,3B2V,3BEL,3GOP,3POZ,3QWQ,3VJO,3W2O,3W2P,3W2Q,3W2R,3W2S,3W32,3W33,4G5J,4I23,4JQ7,4JQ8,4JR3,4JRV,4KRO,4LI5,4RJ4,4RJ5,4RJ6,4RJ7,4RJ8,4TKS,4UIP,4UV7,4WKQ,4WRG,4ZAU,5C8K,5C8M,5C8N,5CAL,5CAN,5CAO,5CAP,5CAQ,5CAS,5CAU,5CAV,5EDP,5EDQ,5EDR,5EM5,5EM6,5EM7,5EM8,5FED,5GNK,5HCX,5HCY,5HCZ,5HIB,5HIC,5UGB,5WB7,5WB8,5Y25,6S89,6S8A

> <UniProt (SwissProt) Recommended Name of Target Chain>
Epidermal growth factor receptor

> <UniProt (SwissProt) Entry Name of Target Chain>
EGFR_HUMAN

> <UniProt (SwissProt) Primary ID of Target Chain>
P00533

> <UniProt (SwissProt) Secondary ID(s) of Target Chain>
O00688,O00732,P06268,Q14225,Q68GS5,Q92795,Q9BZS2,Q9GZX1,Q9H2C9,Q9H3C9,Q9UMD7,Q9UMD8,Q9UMG5

> <UniProt (SwissProt) Alternative ID(s) of Target Chain>


> <UniProt (TrEMBL) Submitted Name of Target Chain>


> <UniProt (TrEMBL) Entry Name of Target Chain>


> <UniProt (TrEMBL) Primary ID of Target Chain>


> <UniProt (TrEMBL) Secondary ID(s) of Target Chain>


> <UniProt (TrEMBL) Alternative ID(s) of Target Chain>


> <training label>
5.46852

> <i_lp_mmshare_version>
54117

> <s_epik_input>
W0NIM11bQ0gyXVtDSDJdW0NIMl1bTkhdQyg9TylbTkhdYyhbY0hdW2NIXTEpW2NIXVtjSF1jMVtOSF1jMm5bY0hdbmMoYzIzKVtjSF1jKE9bQ0gzXSljKFtjSF0zKU9bQ0gyXVtDSDJdTihbQ0gyXVtDSDNdKVtDSDJdW0NIM10=

> <s_epik_cmdline>
J2VwaWtfcHl0aG9uJywgJy1waHQnLCAnMC4xJywgJy1waCcsICc3LjQnLCAnLXRuJywgJzgnLCAnLW1hJywgJzIwMCcsICctaW1hZScsICc8aW5maWxlLm1hZT4nLCAnLW9tYWUnLCAnPG91dGZpbGUubWFlPic=

> <r_lp_tautomer_probability>
0.999978000241998

> <r_epik_Ionization_Penalty>
  0.0608

> <r_epik_Ionization_Penalty_Charging>
  0.0604

> <r_epik_Ionization_Penalty_Neutral>
  0.0004

> <r_epik_State_Penalty>
  0.0524

> <r_epik_Charging_Adjusted_Penalty>
0.112841773912698

> <i_epik_Tot_Q>
1

> <i_epik_Tot_abs_Q>
1

> <i_f3d_flags>
0

> <s_lp_Force_Field>
OPLS_2005

> <r_lp_Energy>
35.622474

> <b_lp_Chiralities_Consistent>
1

> <s_lp_Variant>
/home/bortolaa/Project/GT/mario-master/ligands/set505ligs_train.sdf:49-1

> <s_i_glide_gridfile>
struct_1_site_1

> <i_i_glide_lignum>
49

> <i_i_glide_rotatable_bonds>
15

> <r_i_docking_score>
-6.76738285922658

> <r_i_glide_ligand_efficiency>
-0.193353795977902

> <r_i_glide_ligand_efficiency_sa>
-0.632473087220841

> <r_i_glide_ligand_efficiency_ln>
-1.48559073157056

> <r_i_glide_gscore>
-6.81978285922658

> <r_i_glide_lipo>
-2.28020017338352

> <r_i_glide_hbond>
-0.652707893186293

> <r_i_glide_metal>
0

> <r_i_glide_rewards>
-0.692482599222575

> <r_i_glide_evdw>
-49.2337493896484

> <r_i_glide_ecoul>
-10.584698677063

> <r_i_glide_erotb>
0.962123410727216

> <r_i_glide_esite>
-0.107123333119537

> <r_i_glide_emodel>
-38.7883451777291

> <r_i_glide_energy>
-59.8184480667114

> <r_i_glide_einternal>
12.7060327529907

> <i_i_glide_confnum>
741

> <i_i_glide_posenum>
344

> <r_i_glide_eff_state_penalty>
0.0524

> <PMID>
20222760

> <r_glide_shape_similarity>
0.574933886528015

> <pH>
7.5

> <s_m_subgroup_title>
505 training

> <s_m_subgroupid>
pocket_pv

> <b_m_subgroup_collapsed>
0

$$$$
BindingDB_50308827_mol_1
                    3D
 Schrodinger Suite 2021-2.
 44 46  0  0  1  0            999 V2000
   20.1425    0.5321   52.1848 C   0  0  0  0  0  0
   19.3518   -0.4098   52.8567 C   0  0  0  0  0  0
   19.9158   -1.2207   53.8453 C   0  0  0  0  0  0
   21.5151    0.6198   52.4960 C   0  0  0  0  0  0
   22.0741   -0.1808   53.5026 C   0  0  0  0  0  0
   21.2733   -1.1189   54.1859 C   0  0  0  0  0  0
   21.8048   -1.8985   55.1439 N   0  0  0  0  0  0
   23.0960   -1.7396   55.4108 C   0  0  0  0  0  0
   23.9358   -0.8986   54.8240 N   0  0  0  0  0  0
   23.4355   -0.1018   53.8663 C   0  0  0  0  0  0
   24.2852    0.8461   53.2761 N   0  0  0  0  0  0
   25.6772    0.9453   53.3416 C   0  0  0  0  0  0
   26.5003   -0.1956   53.3305 C   0  0  0  0  0  0
   27.8914   -0.0684   53.3883 C   0  0  0  0  0  0
   28.4673    1.2011   53.4583 C   0  0  0  0  0  0
   27.6640    2.3480   53.4285 C   0  0  0  0  0  0
   26.2688    2.2209   53.3665 C   0  0  0  0  0  0
   28.8829   -1.4723   53.3747 Cl  0  0  0  0  0  0
   19.5013    1.3492   51.2937 O   0  0  0  0  0  0
   18.0245   -0.5145   52.5747 O   0  0  0  0  0  0
   20.2066    2.4591   50.7623 C   0  0  0  0  0  0
   20.6364    2.1076   49.3417 C   0  0  0  0  0  0
   19.6334    2.6304   48.3152 C   0  0  0  0  0  0
   18.2302    2.2013   48.6473 C   0  0  0  0  0  0
   17.3180    3.0546   49.0357 C   0  0  0  0  0  0
   16.4380    3.9110   49.4892 C   0  0  0  0  0  0
   29.8012    1.3087   53.5712 F   0  0  0  0  0  0
   19.2904   -1.9273   54.3691 H   0  0  0  0  0  0
   22.1672    1.2868   51.9579 H   0  0  0  0  0  0
   23.5116   -2.3817   56.1739 H   0  0  0  0  0  0
   23.8213    1.6228   52.8381 H   0  0  0  0  0  0
   26.0696   -1.1844   53.2719 H   0  0  0  0  0  0
   28.1121    3.3311   53.4696 H   0  0  0  0  0  0
   25.6636    3.1160   53.3556 H   0  0  0  0  0  0
   17.7739    0.1046   51.9073 H   0  0  0  0  0  0
   21.0312    2.8358   51.3628 H   0  0  0  0  0  0
   19.5294    3.3136   50.7590 H   0  0  0  0  0  0
   20.7450    1.0260   49.2328 H   0  0  0  0  0  0
   21.6157    2.5409   49.1296 H   0  0  0  0  0  0
   19.8897    2.2568   47.3271 H   0  0  0  0  0  0
   19.7018    3.7200   48.2702 H   0  0  0  0  0  0
   18.0121    1.1490   48.5758 H   0  0  0  0  0  0
   16.3819    4.1574   50.5382 H   0  0  0  0  0  0
   15.7313    4.4022   48.8440 H   0  0  0  0  0  0
  1  2  2  0  0  0
  1  4  1  0  0  0
  1 19  1  0  0  0
  2  3  1  0  0  0
  2 20  1  0  0  0
  3  6  2  0  0  0
  3 28  1  0  0  0
  4  5  2  0  0  0
  4 29  1  0  0  0
  5  6  1  0  0  0
  5 10  1  0  0  0
  6  7  1  0  0  0
  7  8  2  0  0  0
  8  9  1  0  0  0
  8 30  1  0  0  0
  9 10  2  0  0  0
 10 11  1  0  0  0
 11 12  1  0  0  0
 11 31  1  0  0  0
 12 13  2  0  0  0
 12 17  1  0  0  0
 13 14  1  0  0  0
 13 32  1  0  0  0
 14 15  2  0  0  0
 14 18  1  0  0  0
 15 16  1  0  0  0
 15 27  1  0  0  0
 16 17  2  0  0  0
 16 33  1  0  0  0
 17 34  1  0  0  0
 19 21  1  0  0  0
 20 35  1  0  0  0
 21 22  1  0  0  0
 21 36  1  0  0  0
 21 37  1  0  0  0
 22 23  1  0  0  0
 22 38  1  0  0  0
 22 39  1  0  0  0
 23 24  1  0  0  0
 23 40  1  0  0  0
 23 41  1  0  0  0
 24 25  2  0  0  0
 24 42  1  0  0  0
 25 26  2  0  0  0
 26 43  1  0  0  0
 26 44  1  0  0  0
M  END
> <s_m_entry_id>
394

> <s_m_entry_name>
pocket_pv.205

> <s_m_Source_Path>
/home/bortolaa/Project/GT/mario-master/docking/set505protein_struct_1_site_1_set505ligs_train

> <s_m_Source_File>
pocket_pv.maegz

> <i_m_Source_File_Index>
205

> <From>
www.bindingDB.org

> <BindingDB Reactant_set_id>
50554730

> <Ligand InChI>
InChI=1S/C20H17ClFN3O2/c1-2-3-4-5-8-27-19-10-14-17(11-18(19)26)23-12-24-20(14)25-13-6-7-16(22)15(21)9-13/h3,6-7,9-12,26H,1,4-5,8H2,(H,23,24,25)

> <Ligand InChI Key>
VNDGOWZVXDRCAT-UHFFFAOYSA-N

> <BindingDB MonomerID>
50308827

> <BindingDB Ligand Name>
4-(3'-Chloro-4'-fluorophenylamino)-6-(hexa-4,5-dienyloxy)-7-methoxyquinazoline::CHEMBL591038

> <Target Name Assigned by Curator or DataSource>
Epidermal growth factor receptor

> <Target Source Organism According to Curator or DataSource>
Homo sapiens

> <Ki (nM)>


> <Kd (nM)>


> <EC50 (nM)>


> <kon (M-1-s-1)>


> <koff (s-1)>


> <pH>


> <Temp C>


> <Curation/DataSource>
ChEMBL

> <Article DOI>
10.1016/j.bmc.2009.11.035

> <PubChem AID>


> <Patent Number>


> <Authors>
Ban, HS; Tanaka, Y; Nabeyama, W; Hatori, M; Nakamura, H

> <Institution>
Gakushuin University

> <Link to Ligand in BindingDB>
http://www.bindingdb.org/bind/chemsearch/marvin/MolStructure.jsp?monomerid=50308827

> <Link to Ligand-Target Pair in BindingDB>
http://www.bindingdb.org/jsp/dbsearch/PrimarySearch_ki.jsp?energyterm=kJ/mole&tag=r21&monomerid=50308827&enzyme=Epidermal+growth+factor+receptor&column=ki&startPg=0&Increment=50&submit=Search

> <Ligand HET ID in PDB>


> <PDB ID(s) for Ligand-Target Complex>


> <PubChem CID>
46229768

> <PubChem SID>
104163188

> <ChEBI ID of Ligand>


> <ChEMBL ID of Ligand>
CHEMBL591038

> <DrugBank ID of Ligand>


> <IUPHAR_GRAC ID of Ligand>


> <KEGG ID of Ligand>


> <ZINC ID of Ligand>
ZINC45336954

> <Number of Protein Chains in Target (>
1

> <BindingDB Target Chain Sequence>
MRPSGTAGAALLALLAALCPASRALEEKKVCQGTSNKLTQLGTFEDHFLSLQRMFNNCEVVLGNLEITYVQRNYDLSFLKTIQEVAGYVLIALNTVERIPLENLQIIRGNMYYENSYALAVLSNYDANKTGLKELPMRNLQEILHGAVRFSNNPALCNVESIQWRDIVSSDFLSNMSMDFQNHLGSCQKCDPSCPNGSCWGAGEENCQKLTKIICAQQCSGRCRGKSPSDCCHNQCAAGCTGPRESDCLVCRKFRDEATCKDTCPPLMLYNPTTYQMDVNPEGKYSFGATCVKKCPRNYVVTDHGSCVRACGADSYEMEEDGVRKCKKCEGPCRKVCNGIGIGEFKDSLSINATNIKHFKNCTSISGDLHILPVAFRGDSFTHTPPLDPQELDILKTVKEITGFLLIQAWPENRTDLHAFENLEIIRGRTKQHGQFSLAVVSLNITSLGLRSLKEISDGDVIISGNKNLCYANTINWKKLFGTSGQKTKIISNRGENSCKATGQVCHALCSPEGCWGPEPRDCVSCRNVSRGRECVDKCNLLEGEPREFVENSECIQCHPECLPQAMNITCTGRGPDNCIQCAHYIDGPHCVKTCPAGVMGENNTLVWKYADAGHVCHLCHPNCTYGCTGPGLEGCPTNGPKIPSIATGMVGALLLLLVVALGIGLFMRRRHIVRKRTLRRLLQERELVEPLTPSGEAPNQALLRILKETEFKKIKVLGSGAFGTVYKGLWIPEGEKVKIPVAIKELREATSPKANKEILDEAYVMASVDNPHVCRLLGICLTSTVQLITQLMPFGCLLDYVREHKDNIGSQYLLNWCVQIAKGMNYLEDRRLVHRDLAARNVLVKTPQHVKITDFGLAKLLGAEEKEYHAEGGKVPIKWMALESILHRIYTHQSDVWSYGVTVWELMTFGSKPYDGIPASEISSILEKGERLPQPPICTIDVYMIMVKCWMIDADSRPKFRELIIEFSKMARDPQRYLVIQGDERMHLPSPTDSNFYRALMDEEDMDDVVDADEYLIPQQGFFSSPSTSRTPLLSSLSATSNNSTVACIDRNGLQSCPIKEDSFLQRYSSDPTGALTEDSIDDTFLPVPEYINQSVPKRPAGSVQNPVYHNQPLNPAPSRDPHYQDPHSTAVGNPEYLNTVQPTCVNSTFDSPAHWAQKGSHQISLDNPDYQQDFFPKEAKPNGIFKGSTAENAEYLRVAPQSSEFIGA

> <PDB ID(s) of Target Chain>
1IVO,1M14,1M17,1MOX,1XKK,1Z9I,2GS2,2GS6,2ITW,2ITX,2ITY,2J5E,2J5F,2J6M,2RF9,2RGP,3B2V,3BEL,3GOP,3POZ,3QWQ,3VJO,3W2O,3W2P,3W2Q,3W2R,3W2S,3W32,3W33,4G5J,4I23,4JQ7,4JQ8,4JR3,4JRV,4KRO,4LI5,4RJ4,4RJ5,4RJ6,4RJ7,4RJ8,4TKS,4UIP,4UV7,4WKQ,4WRG,4ZAU,5C8K,5C8M,5C8N,5CAL,5CAN,5CAO,5CAP,5CAQ,5CAS,5CAU,5CAV,5EDP,5EDQ,5EDR,5EM5,5EM6,5EM7,5EM8,5FED,5GNK,5HCX,5HCY,5HCZ,5HIB,5HIC,5UGB,5WB7,5WB8,5Y25,6S89,6S8A

> <UniProt (SwissProt) Recommended Name of Target Chain>
Epidermal growth factor receptor

> <UniProt (SwissProt) Entry Name of Target Chain>
EGFR_HUMAN

> <UniProt (SwissProt) Primary ID of Target Chain>
P00533

> <UniProt (SwissProt) Secondary ID(s) of Target Chain>
O00688,O00732,P06268,Q14225,Q68GS5,Q92795,Q9BZS2,Q9GZX1,Q9H2C9,Q9H3C9,Q9UMD7,Q9UMD8,Q9UMG5

> <UniProt (SwissProt) Alternative ID(s) of Target Chain>


> <UniProt (TrEMBL) Submitted Name of Target Chain>


> <UniProt (TrEMBL) Entry Name of Target Chain>


> <UniProt (TrEMBL) Primary ID of Target Chain>


> <UniProt (TrEMBL) Secondary ID(s) of Target Chain>


> <UniProt (TrEMBL) Alternative ID(s) of Target Chain>


> <training label>
8.50031

> <i_lp_mmshare_version>
54117

> <s_epik_input>
W0NIMl09Qz1bQ0hdW0NIMl1bQ0gyXVtDSDJdT2MoW2NIXTEpYyhbT0hdKVtjSF1jKGMxMiluW2NIXW5jMltOSF1jM1tjSF1jKENsKWMoRilbY0hdW2NIXTM=

> <s_epik_cmdline>
J2VwaWtfcHl0aG9uJywgJy1waHQnLCAnMC4xJywgJy1waCcsICc3LjQnLCAnLXRuJywgJzgnLCAnLW1hJywgJzIwMCcsICctaW1hZScsICc8aW5maWxlLm1hZT4nLCAnLW9tYWUnLCAnPG91dGZpbGUubWFlPic=

> <r_epik_Ionization_Penalty>
  0.0900

> <r_epik_Ionization_Penalty_Charging>
  0.0000

> <r_epik_Ionization_Penalty_Neutral>
  0.0900

> <r_epik_State_Penalty>
  0.0803

> <r_epik_Charging_Adjusted_Penalty>
0.080252078452395

> <i_epik_Tot_Q>
0

> <i_epik_Tot_abs_Q>
0

> <i_f3d_flags>
0

> <s_lp_Force_Field>
OPLS_2005

> <r_lp_Energy>
-5.063344

> <b_lp_Chiralities_Consistent>
1

> <s_lp_Variant>
BindingDB_50308827_mol_1-1

> <s_i_glide_gridfile>
struct_1_site_1

> <i_i_glide_lignum>
263

> <i_i_glide_rotatable_bonds>
8

> <r_i_docking_score>
-6.7619896303097

> <r_i_glide_ligand_efficiency>
-0.250444060381841

> <r_i_glide_ligand_efficiency_sa>
-0.7513321803201

> <r_i_glide_ligand_efficiency_ln>
-1.5740797058244

> <r_i_glide_gscore>
-6.8422896303097

> <r_i_glide_lipo>
-2.8470616968021

> <r_i_glide_hbond>
-0.32

> <r_i_glide_metal>
0

> <r_i_glide_rewards>
-1.93557751196254

> <r_i_glide_evdw>
-39.7733306884766

> <r_i_glide_ecoul>
-4.01888370513916

> <r_i_glide_erotb>
0.914968308816283

> <r_i_glide_esite>
-0.0631196401666437

> <r_i_glide_emodel>
-50.3564971293079

> <r_i_glide_energy>
-43.7922143936157

> <r_i_glide_einternal>
4.98204183578491

> <i_i_glide_confnum>
176

> <i_i_glide_posenum>
45

> <r_i_glide_eff_state_penalty>
0.0803

> <IC50 (nM)>
3.16

> <PMID>
19969465

> <r_glide_shape_similarity>
0.883143365383148

> <s_m_subgroup_title>
505 training

> <s_m_subgroupid>
pocket_pv

> <b_m_subgroup_collapsed>
0

$$$$
BindingDB_50144590_mol_1
                    3D
 Schrodinger Suite 2021-2.
 60 63  0  0  1  0            999 V2000
   20.0382    0.7332   51.9267 N   0  0  0  0  0  0
   20.4002    0.7339   50.6334 C   0  0  0  0  0  0
   19.0624    1.1141   50.0917 C   0  0  1  0  0  0
   20.7471    1.3768   52.8557 C   0  0  0  0  0  0
   18.6349    1.0585   51.5885 C   0  0  1  0  0  0
   21.9998    0.9141   53.0340 N   0  0  0  0  0  0
   25.9233   -0.2585   53.7948 C   0  0  0  0  0  0
   24.6607   -0.0141   53.3695 N   0  0  0  0  0  0
   27.4664    1.5589   53.2025 N   0  0  0  0  0  0
   27.1041    0.1812   52.9112 C   0  0  1  0  0  0
   17.6459   -0.0573   52.0112 C   0  0  0  0  0  0
   28.6562    1.6734   53.7799 C   0  0  0  0  0  0
   19.1700    2.4442   49.3305 C   0  0  0  0  0  0
   21.4772    0.5914   50.0482 O   0  0  0  0  0  0
   20.3118    2.4083   53.3746 O   0  0  0  0  0  0
   23.1482    1.8263   52.8778 C   0  0  0  0  0  0
   22.1790   -0.1792   53.9864 C   0  0  0  0  0  0
   23.5423   -0.8740   53.8433 C   0  0  0  0  0  0
   24.3489    1.0505   52.3908 C   0  0  0  0  0  0
   26.1603   -0.8644   54.8431 O   0  0  0  0  0  0
   16.4656    5.1340   49.3500 N   0  3  0  0  0  0
   16.4496    0.0670   51.6633 O   0  0  0  0  0  0
   29.1418    2.7325   54.1725 O   0  0  0  0  0  0
   28.4144   -0.6283   53.1301 C   0  0  0  0  0  0
   29.3348    0.3107   53.9205 C   0  0  0  0  0  0
   18.1056   -0.9791   52.7253 O   0  5  0  0  0  0
   17.9468    2.7270   48.4359 C   0  0  0  0  0  0
   16.3523    3.8627   50.1173 C   0  0  0  0  0  0
   17.7816    5.2880   48.6648 C   0  0  0  0  0  0
   16.5828    2.6527   49.1767 C   0  0  0  0  0  0
   18.0719    4.0931   47.7163 C   0  0  0  0  0  0
   18.6333    0.3161   49.4949 H   0  0  0  0  0  0
   18.2855    2.0272   51.9490 H   0  0  0  0  0  0
   26.8454    2.3457   53.0541 H   0  0  0  0  0  0
   26.8117    0.0901   51.8642 H   0  0  0  0  0  0
   20.0587    2.4475   48.6944 H   0  0  0  0  0  0
   19.3150    3.2600   50.0403 H   0  0  0  0  0  0
   22.9117    2.6127   52.1580 H   0  0  0  0  0  0
   23.4894    2.3273   53.7748 H   0  0  0  0  0  0
   22.0930    0.2584   54.9746 H   0  0  0  0  0  0
   21.3782   -0.9171   53.9010 H   0  0  0  0  0  0
   23.7699   -1.3834   54.7806 H   0  0  0  0  0  0
   23.4368   -1.6626   53.0987 H   0  0  0  0  0  0
   24.1643    0.7165   51.3764 H   0  0  0  0  0  0
   25.1476    1.7806   52.2902 H   0  0  0  0  0  0
   16.3231    5.9747   49.9367 H   0  0  0  0  0  0
   28.2681   -1.5778   53.6454 H   0  0  0  0  0  0
   28.8749   -0.8702   52.1749 H   0  0  0  0  0  0
   29.3748    0.0321   54.9720 H   0  0  0  0  0  0
   30.3516    0.3311   53.5251 H   0  0  0  0  0  0
   17.9366    1.9454   47.6732 H   0  0  0  0  0  0
   17.0781    3.8626   50.9296 H   0  0  0  0  0  0
   15.3638    3.8055   50.5734 H   0  0  0  0  0  0
   18.5652    5.3799   49.4172 H   0  0  0  0  0  0
   17.7836    6.2249   48.1043 H   0  0  0  0  0  0
   16.4861    1.7166   49.7216 H   0  0  0  0  0  0
   15.7829    2.6295   48.4348 H   0  0  0  0  0  0
   17.3663    4.1201   46.8845 H   0  0  0  0  0  0
   19.0627    4.2032   47.2708 H   0  0  0  0  0  0
   15.7344    5.1513   48.6459 H   0  0  0  0  0  0
  1  2  1  0  0  0
  1  4  1  0  0  0
  1  5  1  0  0  0
  2  3  1  0  0  0
  2 14  2  0  0  0
  3  5  1  0  0  0
  3 13  1  0  0  0
  3 32  1  0  0  0
  4  6  1  0  0  0
  4 15  2  0  0  0
  5 11  1  0  0  0
  5 33  1  0  0  0
  6 16  1  0  0  0
  6 17  1  0  0  0
  7  8  1  0  0  0
  7 10  1  0  0  0
  7 20  2  0  0  0
  8 18  1  0  0  0
  8 19  1  0  0  0
  9 10  1  0  0  0
  9 12  1  0  0  0
  9 34  1  0  0  0
 10 24  1  0  0  0
 10 35  1  0  0  0
 11 22  2  0  0  0
 11 26  1  0  0  0
 12 23  2  0  0  0
 12 25  1  0  0  0
 13 27  1  0  0  0
 13 36  1  0  0  0
 13 37  1  0  0  0
 16 19  1  0  0  0
 16 38  1  0  0  0
 16 39  1  0  0  0
 17 18  1  0  0  0
 17 40  1  0  0  0
 17 41  1  0  0  0
 18 42  1  0  0  0
 18 43  1  0  0  0
 19 44  1  0  0  0
 19 45  1  0  0  0
 21 28  1  0  0  0
 21 29  1  0  0  0
 21 46  1  0  0  0
 21 60  1  0  0  0
 24 25  1  0  0  0
 24 47  1  0  0  0
 24 48  1  0  0  0
 25 49  1  0  0  0
 25 50  1  0  0  0
 27 30  1  0  0  0
 27 31  1  0  0  0
 27 51  1  0  0  0
 28 30  1  0  0  0
 28 52  1  0  0  0
 28 53  1  0  0  0
 29 31  1  0  0  0
 29 54  1  0  0  0
 29 55  1  0  0  0
 30 56  1  0  0  0
 30 57  1  0  0  0
 31 58  1  0  0  0
 31 59  1  0  0  0
M  CHG  2  21   1  26  -1
M  END
> <s_m_entry_id>
395

> <s_m_entry_name>
pocket_pv.206

> <s_m_Source_Path>
/home/bortolaa/Project/GT/mario-master/docking/set505protein_struct_1_site_1_set505ligs_train

> <s_m_Source_File>
pocket_pv.maegz

> <i_m_Source_File_Index>
206

> <From>
www.bindingDB.org

> <BindingDB Reactant_set_id>
50463831

> <Ligand InChI>
InChI=1S/C29H30ClN5O4/c1-37-26-17-24-25(18-27(26)39-13-3-10-35-11-14-38-15-12-35)31-19-32-28(24)33-22-6-8-23(9-7-22)34-29(36)20-4-2-5-21(30)16-20/h2,4-9,16-19H,3,10-15H2,1H3,(H,34,36)(H,31,32,33)

> <Ligand InChI Key>
FLBNHSJGJQDKOU-UHFFFAOYSA-N

> <BindingDB MonomerID>
50144590

> <BindingDB Ligand Name>
CHEMBL3759015

> <Target Name Assigned by Curator or DataSource>
Epidermal growth factor receptor

> <Target Source Organism According to Curator or DataSource>
Homo sapiens

> <Ki (nM)>


> <Kd (nM)>


> <EC50 (nM)>


> <kon (M-1-s-1)>


> <koff (s-1)>


> <pH>


> <Temp C>


> <Curation/DataSource>
ChEMBL

> <Article DOI>
10.1016/j.ejmech.2015.12.032

> <PubChem AID>


> <Patent Number>


> <Authors>
Zhang, HQ; Gong, FH; Li, CG; Zhang, C; Wang, YJ; Xu, YG; Sun, LP

> <Institution>
China Pharmaceutical University

> <Link to Ligand in BindingDB>
http://www.bindingdb.org/bind/chemsearch/marvin/MolStructure.jsp?monomerid=50144590

> <Link to Ligand-Target Pair in BindingDB>
http://www.bindingdb.org/jsp/dbsearch/PrimarySearch_ki.jsp?energyterm=kJ/mole&tag=r21&monomerid=50144590&enzyme=Epidermal+growth+factor+receptor&column=ki&startPg=0&Increment=50&submit=Search

> <Ligand HET ID in PDB>


> <PDB ID(s) for Ligand-Target Complex>


> <PubChem CID>
44311705

> <PubChem SID>
104033680

> <ChEBI ID of Ligand>


> <ChEMBL ID of Ligand>
CHEMBL3759015

> <DrugBank ID of Ligand>


> <IUPHAR_GRAC ID of Ligand>


> <KEGG ID of Ligand>


> <ZINC ID of Ligand>
ZINC26293504

> <Number of Protein Chains in Target (>
1

> <BindingDB Target Chain Sequence>
MRPSGTAGAALLALLAALCPASRALEEKKVCQGTSNKLTQLGTFEDHFLSLQRMFNNCEVVLGNLEITYVQRNYDLSFLKTIQEVAGYVLIALNTVERIPLENLQIIRGNMYYENSYALAVLSNYDANKTGLKELPMRNLQEILHGAVRFSNNPALCNVESIQWRDIVSSDFLSNMSMDFQNHLGSCQKCDPSCPNGSCWGAGEENCQKLTKIICAQQCSGRCRGKSPSDCCHNQCAAGCTGPRESDCLVCRKFRDEATCKDTCPPLMLYNPTTYQMDVNPEGKYSFGATCVKKCPRNYVVTDHGSCVRACGADSYEMEEDGVRKCKKCEGPCRKVCNGIGIGEFKDSLSINATNIKHFKNCTSISGDLHILPVAFRGDSFTHTPPLDPQELDILKTVKEITGFLLIQAWPENRTDLHAFENLEIIRGRTKQHGQFSLAVVSLNITSLGLRSLKEISDGDVIISGNKNLCYANTINWKKLFGTSGQKTKIISNRGENSCKATGQVCHALCSPEGCWGPEPRDCVSCRNVSRGRECVDKCNLLEGEPREFVENSECIQCHPECLPQAMNITCTGRGPDNCIQCAHYIDGPHCVKTCPAGVMGENNTLVWKYADAGHVCHLCHPNCTYGCTGPGLEGCPTNGPKIPSIATGMVGALLLLLVVALGIGLFMRRRHIVRKRTLRRLLQERELVEPLTPSGEAPNQALLRILKETEFKKIKVLGSGAFGTVYKGLWIPEGEKVKIPVAIKELREATSPKANKEILDEAYVMASVDNPHVCRLLGICLTSTVQLITQLMPFGCLLDYVREHKDNIGSQYLLNWCVQIAKGMNYLEDRRLVHRDLAARNVLVKTPQHVKITDFGLAKLLGAEEKEYHAEGGKVPIKWMALESILHRIYTHQSDVWSYGVTVWELMTFGSKPYDGIPASEISSILEKGERLPQPPICTIDVYMIMVKCWMIDADSRPKFRELIIEFSKMARDPQRYLVIQGDERMHLPSPTDSNFYRALMDEEDMDDVVDADEYLIPQQGFFSSPSTSRTPLLSSLSATSNNSTVACIDRNGLQSCPIKEDSFLQRYSSDPTGALTEDSIDDTFLPVPEYINQSVPKRPAGSVQNPVYHNQPLNPAPSRDPHYQDPHSTAVGNPEYLNTVQPTCVNSTFDSPAHWAQKGSHQISLDNPDYQQDFFPKEAKPNGIFKGSTAENAEYLRVAPQSSEFIGA

> <PDB ID(s) of Target Chain>
1IVO,1M14,1M17,1MOX,1XKK,1Z9I,2GS2,2GS6,2ITW,2ITX,2ITY,2J5E,2J5F,2J6M,2RF9,2RGP,3B2V,3BEL,3GOP,3POZ,3QWQ,3VJO,3W2O,3W2P,3W2Q,3W2R,3W2S,3W32,3W33,4G5J,4I23,4JQ7,4JQ8,4JR3,4JRV,4KRO,4LI5,4RJ4,4RJ5,4RJ6,4RJ7,4RJ8,4TKS,4UIP,4UV7,4WKQ,4WRG,4ZAU,5C8K,5C8M,5C8N,5CAL,5CAN,5CAO,5CAP,5CAQ,5CAS,5CAU,5CAV,5EDP,5EDQ,5EDR,5EM5,5EM6,5EM7,5EM8,5FED,5GNK,5HCX,5HCY,5HCZ,5HIB,5HIC,5UGB,5WB7,5WB8,5Y25,6S89,6S8A

> <UniProt (SwissProt) Recommended Name of Target Chain>
Epidermal growth factor receptor

> <UniProt (SwissProt) Entry Name of Target Chain>
EGFR_HUMAN

> <UniProt (SwissProt) Primary ID of Target Chain>
P00533

> <UniProt (SwissProt) Secondary ID(s) of Target Chain>
O00688,O00732,P06268,Q14225,Q68GS5,Q92795,Q9BZS2,Q9GZX1,Q9H2C9,Q9H3C9,Q9UMD7,Q9UMD8,Q9UMG5

> <UniProt (SwissProt) Alternative ID(s) of Target Chain>


> <UniProt (TrEMBL) Submitted Name of Target Chain>


> <UniProt (TrEMBL) Entry Name of Target Chain>


> <UniProt (TrEMBL) Primary ID of Target Chain>


> <UniProt (TrEMBL) Secondary ID(s) of Target Chain>


> <UniProt (TrEMBL) Alternative ID(s) of Target Chain>


> <training label>
6.63827

> <i_lp_mmshare_version>
54117

> <s_epik_input>
W0NIMl0xW0NIMl1bTkhdW0NIMl1bQ0gyXVtDSF0xW0NIMl1bQ0BIXShbQ0BIXTJDKD1PKVtPSF0pQyg9TylOMkMoPU8pTjNbQ0gyXVtDSDJdTihbQ0gyXVtDSDJdMylDKD1PKVtDQEhdNFtOSF1DKD1PKVtDSDJdW0NIMl00

> <s_epik_cmdline>
J2VwaWtfcHl0aG9uJywgJy1waHQnLCAnMC4xJywgJy1waCcsICc3LjQnLCAnLXRuJywgJzgnLCAnLW1hJywgJzIwMCcsICctaW1hZScsICc8aW5maWxlLm1hZT4nLCAnLW9tYWUnLCAnPG91dGZpbGUubWFlPic=

> <r_lp_tautomer_probability>
1

> <r_epik_Ionization_Penalty>
  0.0009

> <r_epik_Ionization_Penalty_Charging>
  0.0009

> <r_epik_Ionization_Penalty_Neutral>
  0.0000

> <r_epik_State_Penalty>
  0.0000

> <r_epik_Charging_Adjusted_Penalty>
0.000863842342194346

> <i_epik_Tot_Q>
0

> <i_epik_Tot_abs_Q>
2

> <i_f3d_flags>
0

> <s_lp_Force_Field>
OPLS_2005

> <r_lp_Energy>
88.628419

> <b_lp_Chiralities_Consistent>
1

> <s_lp_Variant>
BindingDB_50144590_mol_1-1

> <s_i_glide_gridfile>
struct_1_site_1

> <i_i_glide_lignum>
131

> <i_i_glide_rotatable_bonds>
7

> <r_i_docking_score>
-6.74795318778819

> <r_i_glide_ligand_efficiency>
-0.21767590928349

> <r_i_glide_ligand_efficiency_sa>
-0.683802889132136

> <r_i_glide_ligand_efficiency_ln>
-1.52187024377571

> <r_i_glide_gscore>
-6.74795318778819

> <r_i_glide_lipo>
-1.51831162761813

> <r_i_glide_hbond>
-0.521600589263389

> <r_i_glide_metal>
0

> <r_i_glide_rewards>
-2.23994890909091

> <r_i_glide_evdw>
-35.0401725769043

> <r_i_glide_ecoul>
-8.30989170074463

> <r_i_glide_erotb>
0.630400322141144

> <r_i_glide_esite>
-0.1

> <r_i_glide_emodel>
-25.4156686804187

> <r_i_glide_energy>
-43.3500642776489

> <r_i_glide_einternal>
16.7722396850586

> <i_i_glide_confnum>
481

> <i_i_glide_posenum>
249

> <r_i_glide_eff_state_penalty>
0

> <IC50 (nM)>
230

> <PMID>
26826581

> <r_glide_shape_similarity>
0.657894730567932

> <s_m_subgroup_title>
505 training

> <s_m_subgroupid>
pocket_pv

> <b_m_subgroup_collapsed>
0

$$$$
/home/bortolaa/Project/GT/mario-master/ligands/set505ligs_train.sdf:156
                    3D
 Schrodinger Suite 2021-2.
 81 86  0  0  1  0            999 V2000
   11.7444    1.3486   52.9878 C   0  0  0  0  0  0
   12.6267    0.6944   54.0837 C   0  0  1  0  0  0
   11.8052    0.4838   51.7003 C   0  0  2  0  0  0
   12.1055   -0.7352   54.3898 C   0  0  0  0  0  0
   11.2885   -0.9502   52.0028 C   0  0  0  0  0  0
   12.1780   -1.5944   53.1009 C   0  0  1  0  0  0
   13.2720    0.4035   51.1946 C   0  0  0  0  0  0
   14.1860   -0.2443   52.2817 C   0  0  0  0  0  0
   14.0901    0.6130   53.5881 C   0  0  0  0  0  0
   13.6491   -1.6704   52.6059 C   0  0  0  0  0  0
   15.6393   -0.3563   51.7639 C   0  0  0  0  0  0
   18.7542    0.5745   51.7093 C   0  0  0  0  0  0
   20.1444    0.6072   51.9007 C   0  0  0  0  0  0
   20.7571   -0.1316   52.9341 C   0  0  0  0  0  0
   19.9844   -0.9791   53.7574 C   0  0  0  0  0  0
   18.5968   -1.0330   53.5604 C   0  0  0  0  0  0
   17.9778   -0.2390   52.5745 C   0  0  0  0  0  0
   22.1266    0.0721   53.0473 N   0  0  0  0  0  0
   25.0019   -1.2662   55.6845 N   0  0  0  0  0  0
   23.7238   -1.6502   55.7433 C   0  0  0  0  0  0
   22.7498   -1.2661   54.9228 N   0  0  0  0  0  0
   23.0803   -0.3799   53.9574 C   0  0  0  0  0  0
   24.3954    0.1113   53.8071 C   0  0  0  0  0  0
   24.7678    1.0734   52.8344 C   0  0  0  0  0  0
   26.1246    1.4408   52.6596 C   0  0  0  0  0  0
   27.0989    0.8862   53.5120 C   0  0  0  0  0  0
   26.6943    0.0176   54.5570 C   0  0  0  0  0  0
   25.3586   -0.4048   54.7017 C   0  0  0  0  0  0
   26.5924    2.2925   51.6722 O   0  0  0  0  0  0
   25.6910    2.9219   50.7570 C   0  0  0  0  0  0
   26.3738    3.0543   49.3777 C   0  0  0  0  0  0
   28.4095    1.2392   53.2583 O   0  0  0  0  0  0
   29.4442    0.6569   54.0409 C   0  0  0  0  0  0
   16.5796   -0.1442   52.6851 N   0  0  0  0  0  0
   27.4881    3.9367   49.3745 O   0  0  0  0  0  0
   27.1453    5.3184   49.3702 C   0  0  0  0  0  0
   29.8562   -0.7590   53.5794 C   0  0  0  0  0  0
   28.7681   -1.6661   53.6475 O   0  0  0  0  0  0
   29.0919   -2.9820   53.2407 C   0  0  0  0  0  0
   18.1533    1.4776   50.6377 C   0  0  0  0  0  0
   15.8853   -0.6474   50.5928 O   0  0  0  0  0  0
   10.7124    1.4407   53.3326 H   0  0  0  0  0  0
   12.0870    2.3638   52.7778 H   0  0  0  0  0  0
   12.5823    1.3023   54.9878 H   0  0  0  0  0  0
   11.1801    0.9376   50.9280 H   0  0  0  0  0  0
   11.0772   -0.6884   54.7527 H   0  0  0  0  0  0
   12.6909   -1.1959   55.1870 H   0  0  0  0  0  0
   11.3043   -1.5573   51.0966 H   0  0  0  0  0  0
   10.2486   -0.9125   52.3317 H   0  0  0  0  0  0
   11.8162   -2.6005   53.3165 H   0  0  0  0  0  0
   13.3038   -0.1776   50.2711 H   0  0  0  0  0  0
   13.6334    1.4005   50.9367 H   0  0  0  0  0  0
   14.4763    1.6200   53.4198 H   0  0  0  0  0  0
   14.6859    0.1703   54.3845 H   0  0  0  0  0  0
   14.2649   -2.1452   53.3732 H   0  0  0  0  0  0
   13.7103   -2.3104   51.7236 H   0  0  0  0  0  0
   20.7465    1.2449   51.2680 H   0  0  0  0  0  0
   20.4010   -1.5749   54.5513 H   0  0  0  0  0  0
   17.9976   -1.6320   54.2311 H   0  0  0  0  0  0
   22.4897    0.7369   52.3841 H   0  0  0  0  0  0
   23.4437   -2.3127   56.5481 H   0  0  0  0  0  0
   24.0048    1.5014   52.2104 H   0  0  0  0  0  0
   27.4080   -0.4001   55.2452 H   0  0  0  0  0  0
   24.7935    2.3376   50.5711 H   0  0  0  0  0  0
   25.3707    3.8848   51.1524 H   0  0  0  0  0  0
   26.7234    2.0711   49.0623 H   0  0  0  0  0  0
   25.6508    3.3754   48.6249 H   0  0  0  0  0  0
   30.3037    1.3154   53.9375 H   0  0  0  0  0  0
   29.2069    0.6928   55.1003 H   0  0  0  0  0  0
   16.2256   -0.0320   53.6251 H   0  0  0  0  0  0
   28.0568    5.9160   49.3725 H   0  0  0  0  0  0
   26.5756    5.5789   48.4766 H   0  0  0  0  0  0
   26.5621    5.6022   50.2458 H   0  0  0  0  0  0
   30.2566   -0.7263   52.5746 H   0  0  0  0  0  0
   30.6646   -1.1193   54.2169 H   0  0  0  0  0  0
   28.2552   -3.6486   53.4370 H   0  0  0  0  0  0
   29.2991   -3.0214   52.1750 H   0  0  0  0  0  0
   29.9566   -3.3720   53.7741 H   0  0  0  0  0  0
   18.8538    2.2553   50.3354 H   0  0  0  0  0  0
   17.8987    0.8917   49.7530 H   0  0  0  0  0  0
   17.2513    1.9710   50.9955 H   0  0  0  0  0  0
  1  2  1  0  0  0
  1  3  1  0  0  0
  1 42  1  0  0  0
  1 43  1  0  0  0
  2  4  1  0  0  0
  2  9  1  0  0  0
  2 44  1  0  0  0
  3  5  1  0  0  0
  3  7  1  0  0  0
  3 45  1  0  0  0
  4  6  1  0  0  0
  4 46  1  0  0  0
  4 47  1  0  0  0
  5  6  1  0  0  0
  5 48  1  0  0  0
  5 49  1  0  0  0
  6 10  1  0  0  0
  6 50  1  0  0  0
  7  8  1  0  0  0
  7 51  1  0  0  0
  7 52  1  0  0  0
  8 10  1  0  0  0
  8  9  1  0  0  0
  8 11  1  0  0  0
  9 53  1  0  0  0
  9 54  1  0  0  0
 10 55  1  0  0  0
 10 56  1  0  0  0
 11 34  1  0  0  0
 11 41  2  0  0  0
 12 13  1  0  0  0
 12 17  2  0  0  0
 12 40  1  0  0  0
 13 14  2  0  0  0
 13 57  1  0  0  0
 14 15  1  0  0  0
 14 18  1  0  0  0
 15 16  2  0  0  0
 15 58  1  0  0  0
 16 17  1  0  0  0
 16 59  1  0  0  0
 17 34  1  0  0  0
 18 22  1  0  0  0
 18 60  1  0  0  0
 19 20  1  0  0  0
 19 28  2  0  0  0
 20 21  2  0  0  0
 20 61  1  0  0  0
 21 22  1  0  0  0
 22 23  2  0  0  0
 23 24  1  0  0  0
 23 28  1  0  0  0
 24 25  2  0  0  0
 24 62  1  0  0  0
 25 26  1  0  0  0
 25 29  1  0  0  0
 26 27  2  0  0  0
 26 32  1  0  0  0
 27 28  1  0  0  0
 27 63  1  0  0  0
 29 30  1  0  0  0
 30 31  1  0  0  0
 30 64  1  0  0  0
 30 65  1  0  0  0
 31 35  1  0  0  0
 31 66  1  0  0  0
 31 67  1  0  0  0
 32 33  1  0  0  0
 33 37  1  0  0  0
 33 68  1  0  0  0
 33 69  1  0  0  0
 34 70  1  0  0  0
 35 36  1  0  0  0
 36 71  1  0  0  0
 36 72  1  0  0  0
 36 73  1  0  0  0
 37 38  1  0  0  0
 37 74  1  0  0  0
 37 75  1  0  0  0
 38 39  1  0  0  0
 39 76  1  0  0  0
 39 77  1  0  0  0
 39 78  1  0  0  0
 40 79  1  0  0  0
 40 80  1  0  0  0
 40 81  1  0  0  0
M  END
> <s_m_entry_id>
396

> <s_m_entry_name>
pocket_pv.207

> <s_m_Source_Path>
/home/bortolaa/Project/GT/mario-master/docking/set505protein_struct_1_site_1_set505ligs_train

> <s_m_Source_File>
pocket_pv.maegz

> <i_m_Source_File_Index>
207

> <From>
www.bindingDB.org

> <BindingDB Reactant_set_id>
50467782

> <Ligand InChI>
InChI=1S/C32H40N4O5/c1-20-10-24(4-5-26(20)36-31(37)32-16-21-11-22(17-32)13-23(12-21)18-32)35-30-25-14-28(40-8-6-38-2)29(41-9-7-39-3)15-27(25)33-19-34-30/h4-5,10,14-15,19,21-23H,6-9,11-13,16-18H2,1-3H3,(H,36,37)(H,33,34,35)

> <Ligand InChI Key>
ATEOIYJMIPIXFL-UHFFFAOYSA-N

> <BindingDB MonomerID>
50146995

> <BindingDB Ligand Name>
CHEMBL3764589

> <Target Name Assigned by Curator or DataSource>
Epidermal growth factor receptor

> <Target Source Organism According to Curator or DataSource>


> <Ki (nM)>


> <Kd (nM)>


> <EC50 (nM)>


> <kon (M-1-s-1)>


> <koff (s-1)>


> <pH>


> <Temp C>


> <Curation/DataSource>
ChEMBL

> <Article DOI>
10.1016/j.ejmech.2016.01.045

> <PubChem AID>


> <Patent Number>


> <Authors>
Yu, H; Li, Y; Ge, Y; Song, Z; Wang, C; Huang, S; Jin, Y; Han, X; Zhen, Y; Liu, K; Zhou, Y; Ma, X

> <Institution>
Dalian Medical University

> <Link to Ligand in BindingDB>
http://www.bindingdb.org/bind/chemsearch/marvin/MolStructure.jsp?monomerid=50146995

> <Link to Ligand-Target Pair in BindingDB>
http://www.bindingdb.org/jsp/dbsearch/PrimarySearch_ki.jsp?energyterm=kJ/mole&tag=r21&monomerid=50146995&enzyme=Epidermal+growth+factor+receptor&column=ki&startPg=0&Increment=50&submit=Search

> <Ligand HET ID in PDB>


> <PDB ID(s) for Ligand-Target Complex>


> <PubChem CID>
44330519

> <PubChem SID>
85454982

> <ChEBI ID of Ligand>


> <ChEMBL ID of Ligand>
CHEMBL3764589

> <DrugBank ID of Ligand>


> <IUPHAR_GRAC ID of Ligand>


> <KEGG ID of Ligand>


> <ZINC ID of Ligand>


> <Number of Protein Chains in Target (>
4

> <BindingDB Target Chain Sequence>
MRANDALQVLGLLFSLARGSEVGNSQAVCPGTLNGLSVTGDAENQYQTLYKLYERCEVVMGNLEIVLTGHNADLSFLQWIREVTGYVLVAMNEFSTLPLPNLRVVRGTQVYDGKFAIFVMLNYNTNSSHALRQLRLTQLTEILSGGVYIEKNDKLCHMDTIDWRDIVRDRDAEIVVKDNGRSCPPCHEVCKGRCWGPGSEDCQTLTKTICAPQCNGHCFGPNPNQCCHDECAGGCSGPQDTDCFACRHFNDSGACVPRCPQPLVYNKLTFQLEPNPHTKYQYGGVCVASCPHNFVVDQTSCVRACPPDKMEVDKNGLKMCEPCGGLCPKACEGTGSGSRFQTVDSSNIDGFVNCTKILGNLDFLITGLNGDPWHKIPALDPEKLNVFRTVREITGYLNIQSWPPHMHNFSVFSNLTTIGGRSLYNRGFSLLIMKNLNVTSLGFRSLKEISAGRIYISANRQLCYHHSLNWTKVLRGPTEERLDIKHNRPRRDCVAEGKVCDPLCSSGGCWGPGPGQCLSCRNYSRGGVCVTHCNFLNGEPREFAHEAECFSCHPECQPMEGTATCNGSGSDTCAQCAHFRDGPHCVSSCPHGVLGAKGPIYKYPDVQNECRPCHENCTQGCKGPELQDCLGQTLVLIGKTHLTMALTVIAGLVVIFMMLGGTFLYWRGRRIQNKRAMRRYLERGESIEPLDPSEKANKVLARIFKETELRKLKVLGSGVFGTVHKGVWIPEGESIKIPVCIKVIEDKSGRQSFQAVTDHMLAIGSLDHAHIVRLLGLCPGSSLQLVTQYLPLGSLLDHVRQHRGALGPQLLLNWGVQIAKGMYYLEEHGMVHRNLAARNVLLKSPSQVQVADFGVADLLPPDDKQLLYSEAKTPIKWMALESIHFGKYTHQSDVWSYGVTVWELMTFGAEPYAGLRLAEVPDLLEKGERLAQPQICTIDVYMVMVKCWMIDENIRPTFKELANEFTRMARDPPRYLVIKRESGPGIAPGPEPHGLTNKKLEEVELEPELDLDLDLEAEEDNLATTTLGSALSLPVGTLNRPRGSQSLLSPSSGYMPMNQGNLGESCQESAVSGSSERCPRPVSLHPMPRGCLASESSEGHVTGSEAELQEKVSMCRSRSRSRSPRPRGDSAYHSQRHSLLTPVTPLSPPGLEEEDVNGYVMPDTHLKGTPSSREGTLSSVGLSSVLGTEEEDEDEEYEYMNRRRRHSPPHPPRPSSLEELGYEYMDVGSDLSASLGSTQSCPLHPVPIMPTAGTTPDEDYEYMNRQRDGGGPGGDYAAMGACPASEQGYEEMRAFQGPGHQAPHVHYARLKTLRSLEATDSAFDNPDYWHSRLFPKANAQRT

> <PDB ID(s) of Target Chain>
3KEX,4RIX,4RIY,5CUS,5O4O,5O7P,6OP9

> <UniProt (SwissProt) Recommended Name of Target Chain>
Receptor tyrosine-protein kinase erbB-3

> <UniProt (SwissProt) Entry Name of Target Chain>
ERBB3_HUMAN

> <UniProt (SwissProt) Primary ID of Target Chain>
P21860

> <UniProt (SwissProt) Secondary ID(s) of Target Chain>
A8K6L6,B4DIK7,B4DV32,E9PDT8,Q9BUD7

> <UniProt (SwissProt) Alternative ID(s) of Target Chain>


> <UniProt (TrEMBL) Submitted Name of Target Chain>


> <UniProt (TrEMBL) Entry Name of Target Chain>


> <UniProt (TrEMBL) Primary ID of Target Chain>


> <UniProt (TrEMBL) Secondary ID(s) of Target Chain>


> <UniProt (TrEMBL) Alternative ID(s) of Target Chain>


> <training label>
7.18046

> <i_lp_mmshare_version>
54117

> <s_epik_input>
W0NIMl0xW0NAQEhdKFtDSDJdMilbQ0gyXVtDQEBIXShbQ0gyXTMpW0NIMl1bQ0BIXTFbQ0gyXUMyM0MoPU8pW05IXWM0W2NIXVtjSF1jKFtjSF1jNFtDSDNdKVtOSF1jNW5bY0hdbmMoYzU2KVtjSF1jKE9bQ0gyXVtDSDJdT1tDSDNdKWMoW2NIXTYpT1tDSDJdW0NIMl1PW0NIM10=

> <s_epik_cmdline>
J2VwaWtfcHl0aG9uJywgJy1waHQnLCAnMC4xJywgJy1waCcsICc3LjQnLCAnLXRuJywgJzgnLCAnLW1hJywgJzIwMCcsICctaW1hZScsICc8aW5maWxlLm1hZT4nLCAnLW9tYWUnLCAnPG91dGZpbGUubWFlPic=

> <r_lp_tautomer_probability>
1

> <r_epik_Ionization_Penalty>
  0.0006

> <r_epik_Ionization_Penalty_Charging>
  0.0000

> <r_epik_Ionization_Penalty_Neutral>
  0.0006

> <r_epik_State_Penalty>
  0.0000

> <r_epik_Charging_Adjusted_Penalty>
0

> <i_epik_Tot_Q>
0

> <i_epik_Tot_abs_Q>
0

> <i_f3d_flags>
0

> <s_lp_Force_Field>
OPLS_2005

> <r_lp_Energy>
62.365257

> <b_lp_Chiralities_Consistent>
1

> <s_lp_Variant>
/home/bortolaa/Project/GT/mario-master/ligands/set505ligs_train.sdf:156-1

> <s_i_glide_gridfile>
struct_1_site_1

> <i_i_glide_lignum>
180

> <i_i_glide_rotatable_bonds>
13

> <r_i_docking_score>
-6.71798367655237

> <r_i_glide_ligand_efficiency>
-0.163853260403716

> <r_i_glide_ligand_efficiency_sa>
-0.565001636717624

> <r_i_glide_ligand_efficiency_ln>
-1.42524259340529

> <r_i_glide_gscore>
-6.71798367655237

> <r_i_glide_lipo>
-3.4426730097033

> <r_i_glide_hbond>
-0.0641544602400763

> <r_i_glide_metal>
0

> <r_i_glide_rewards>
-0.375599448772415

> <r_i_glide_evdw>
-55.5882530212402

> <r_i_glide_ecoul>
-4.68931341171265

> <r_i_glide_erotb>
0.647252904982324

> <r_i_glide_esite>
0

> <r_i_glide_emodel>
-36.9924095059546

> <r_i_glide_energy>
-60.2775664329529

> <r_i_glide_einternal>
7.27806186676025

> <i_i_glide_confnum>
97

> <i_i_glide_posenum>
240

> <r_i_glide_eff_state_penalty>
0

> <IC50 (nM)>
66

> <PMID>
26829280

> <r_glide_shape_similarity>
0.557444393634796

> <s_m_subgroup_title>
505 training

> <s_m_subgroupid>
pocket_pv

> <b_m_subgroup_collapsed>
0

$$$$
BindingDB_50144606_mol_1
                    3D
 Schrodinger Suite 2021-2.
 44 47  0  0  1  0            999 V2000
   24.2220    0.7210   53.3294 N   0  0  0  0  0  0
   25.6758    0.8588   53.5289 C   0  0  2  0  0  0
   23.5112   -0.2062   54.0224 C   0  0  0  0  0  0
   22.1842   -0.1534   53.5427 C   0  0  0  0  0  0
   22.0770    0.8173   52.5669 N   0  0  0  0  0  0
   26.3127    2.0571   52.8862 C   0  0  2  0  0  0
   23.3249    1.2931   52.5083 C   0  0  0  0  0  0
   26.2350   -0.2541   52.9459 O   0  0  0  0  0  0
   27.7306    1.5228   52.7220 C   0  0  2  0  0  0
   27.5961   -0.0191   52.7361 C   0  0  1  0  0  0
   21.3211   -1.0797   54.1562 C   0  0  0  0  0  0
   23.9983   -1.0307   54.9723 N   0  0  0  0  0  0
   21.7737   -1.8954   55.1190 N   0  0  0  0  0  0
   19.6482   -1.2865   53.7750 S   0  0  0  0  0  0
   23.0532   -1.8079   55.4631 C   0  0  0  0  0  0
   26.2751    3.1443   53.7735 O   0  0  0  0  0  0
   28.5408    1.9909   53.7648 O   0  0  0  0  0  0
   19.2195   -0.0555   52.5413 C   0  0  0  0  0  0
   14.9574    0.1827   51.8120 C   0  0  0  0  0  0
   17.7256   -0.0670   52.2716 C   0  0  0  0  0  0
   28.3552   -0.8178   53.7988 C   0  0  0  0  0  0
   12.9029    0.3839   51.5134 I   0  0  0  0  0  0
   15.8757    0.5837   50.8289 C   0  0  0  0  0  0
   15.4103   -0.3555   53.0096 C   0  0  0  0  0  0
   17.2601    0.4606   51.0631 C   0  0  0  0  0  0
   16.7835   -0.4790   53.2351 C   0  0  0  0  0  0
   29.7008   -0.9364   53.4162 O   0  0  0  0  0  0
   25.8508    0.8389   54.6080 H   0  0  0  0  0  0
   25.8518    2.2856   51.9276 H   0  0  0  0  0  0
   23.5927    2.0818   51.8204 H   0  0  0  0  0  0
   28.1106    1.9338   51.7894 H   0  0  0  0  0  0
   27.8064   -0.4670   51.7664 H   0  0  0  0  0  0
   23.3743   -2.4684   56.2516 H   0  0  0  0  0  0
   26.2920    4.0233   53.3572 H   0  0  0  0  0  0
   28.1148    2.7835   54.0777 H   0  0  0  0  0  0
   19.4864    0.9390   52.9052 H   0  0  0  0  0  0
   19.7808   -0.2473   51.6271 H   0  0  0  0  0  0
   27.9270   -1.8193   53.8641 H   0  0  0  0  0  0
   28.2695   -0.3721   54.8024 H   0  0  0  0  0  0
   15.5165    0.9980   49.8996 H   0  0  0  0  0  0
   14.7032   -0.6558   53.7727 H   0  0  0  0  0  0
   17.9633    0.7939   50.3152 H   0  0  0  0  0  0
   17.0972   -0.8791   54.1882 H   0  0  0  0  0  0
   30.0693   -0.0628   53.4427 H   0  0  0  0  0  0
  1  2  1  0  0  0
  1  3  1  0  0  0
  1  7  1  0  0  0
  2  6  1  0  0  0
  2  8  1  0  0  0
  2 28  1  0  0  0
  3  4  2  0  0  0
  3 12  1  0  0  0
  4 11  1  0  0  0
  4  5  1  0  0  0
  5  7  2  0  0  0
  6  9  1  0  0  0
  6 16  1  0  0  0
  6 29  1  0  0  0
  7 30  1  0  0  0
  8 10  1  0  0  0
  9 17  1  0  0  0
  9 10  1  0  0  0
  9 31  1  0  0  0
 10 21  1  0  0  0
 10 32  1  0  0  0
 11 14  1  0  0  0
 11 13  2  0  0  0
 12 15  2  0  0  0
 13 15  1  0  0  0
 14 18  1  0  0  0
 15 33  1  0  0  0
 16 34  1  0  0  0
 17 35  1  0  0  0
 18 20  1  0  0  0
 18 36  1  0  0  0
 18 37  1  0  0  0
 19 24  2  0  0  0
 19 22  1  0  0  0
 19 23  1  0  0  0
 20 25  1  0  0  0
 20 26  2  0  0  0
 21 27  1  0  0  0
 21 38  1  0  0  0
 21 39  1  0  0  0
 23 25  2  0  0  0
 23 40  1  0  0  0
 24 26  1  0  0  0
 24 41  1  0  0  0
 25 42  1  0  0  0
 26 43  1  0  0  0
 27 44  1  0  0  0
M  END
> <s_m_entry_id>
397

> <s_m_entry_name>
pocket_pv.208

> <s_m_Source_Path>
/home/bortolaa/Project/GT/mario-master/docking/set505protein_struct_1_site_1_set505ligs_train

> <s_m_Source_File>
pocket_pv.maegz

> <i_m_Source_File_Index>
208

> <From>
www.bindingDB.org

> <BindingDB Reactant_set_id>
50463846

> <Ligand InChI>
InChI=1S/C29H23ClN4O3/c1-36-26-15-23-25(16-27(26)37-17-19-7-3-2-4-8-19)31-18-32-28(23)33-20-11-13-21(14-12-20)34-29(35)22-9-5-6-10-24(22)30/h2-16,18H,17H2,1H3,(H,34,35)(H,31,32,33)

> <Ligand InChI Key>
JASSTMZJDQXQFP-UHFFFAOYSA-N

> <BindingDB MonomerID>
50144606

> <BindingDB Ligand Name>
CHEMBL3759203

> <Target Name Assigned by Curator or DataSource>
Epidermal growth factor receptor

> <Target Source Organism According to Curator or DataSource>
Homo sapiens

> <Ki (nM)>


> <IC50 (nM)>
730

> <Kd (nM)>


> <EC50 (nM)>


> <kon (M-1-s-1)>


> <koff (s-1)>


> <pH>


> <Temp C>


> <Curation/DataSource>
ChEMBL

> <Article DOI>
10.1016/j.ejmech.2015.12.032

> <PubChem AID>


> <Patent Number>


> <Authors>
Zhang, HQ; Gong, FH; Li, CG; Zhang, C; Wang, YJ; Xu, YG; Sun, LP

> <Institution>
China Pharmaceutical University

> <Link to Ligand in BindingDB>
http://www.bindingdb.org/bind/chemsearch/marvin/MolStructure.jsp?monomerid=50144606

> <Link to Ligand-Target Pair in BindingDB>
http://www.bindingdb.org/jsp/dbsearch/PrimarySearch_ki.jsp?energyterm=kJ/mole&tag=r21&monomerid=50144606&enzyme=Epidermal+growth+factor+receptor&column=ki&startPg=0&Increment=50&submit=Search

> <Ligand HET ID in PDB>


> <PDB ID(s) for Ligand-Target Complex>


> <PubChem CID>
44312149

> <PubChem SID>
104033684

> <ChEBI ID of Ligand>


> <ChEMBL ID of Ligand>
CHEMBL3759203

> <DrugBank ID of Ligand>


> <IUPHAR_GRAC ID of Ligand>


> <KEGG ID of Ligand>


> <ZINC ID of Ligand>
ZINC36332177

> <Number of Protein Chains in Target (>
1

> <BindingDB Target Chain Sequence>
MRPSGTAGAALLALLAALCPASRALEEKKVCQGTSNKLTQLGTFEDHFLSLQRMFNNCEVVLGNLEITYVQRNYDLSFLKTIQEVAGYVLIALNTVERIPLENLQIIRGNMYYENSYALAVLSNYDANKTGLKELPMRNLQEILHGAVRFSNNPALCNVESIQWRDIVSSDFLSNMSMDFQNHLGSCQKCDPSCPNGSCWGAGEENCQKLTKIICAQQCSGRCRGKSPSDCCHNQCAAGCTGPRESDCLVCRKFRDEATCKDTCPPLMLYNPTTYQMDVNPEGKYSFGATCVKKCPRNYVVTDHGSCVRACGADSYEMEEDGVRKCKKCEGPCRKVCNGIGIGEFKDSLSINATNIKHFKNCTSISGDLHILPVAFRGDSFTHTPPLDPQELDILKTVKEITGFLLIQAWPENRTDLHAFENLEIIRGRTKQHGQFSLAVVSLNITSLGLRSLKEISDGDVIISGNKNLCYANTINWKKLFGTSGQKTKIISNRGENSCKATGQVCHALCSPEGCWGPEPRDCVSCRNVSRGRECVDKCNLLEGEPREFVENSECIQCHPECLPQAMNITCTGRGPDNCIQCAHYIDGPHCVKTCPAGVMGENNTLVWKYADAGHVCHLCHPNCTYGCTGPGLEGCPTNGPKIPSIATGMVGALLLLLVVALGIGLFMRRRHIVRKRTLRRLLQERELVEPLTPSGEAPNQALLRILKETEFKKIKVLGSGAFGTVYKGLWIPEGEKVKIPVAIKELREATSPKANKEILDEAYVMASVDNPHVCRLLGICLTSTVQLITQLMPFGCLLDYVREHKDNIGSQYLLNWCVQIAKGMNYLEDRRLVHRDLAARNVLVKTPQHVKITDFGLAKLLGAEEKEYHAEGGKVPIKWMALESILHRIYTHQSDVWSYGVTVWELMTFGSKPYDGIPASEISSILEKGERLPQPPICTIDVYMIMVKCWMIDADSRPKFRELIIEFSKMARDPQRYLVIQGDERMHLPSPTDSNFYRALMDEEDMDDVVDADEYLIPQQGFFSSPSTSRTPLLSSLSATSNNSTVACIDRNGLQSCPIKEDSFLQRYSSDPTGALTEDSIDDTFLPVPEYINQSVPKRPAGSVQNPVYHNQPLNPAPSRDPHYQDPHSTAVGNPEYLNTVQPTCVNSTFDSPAHWAQKGSHQISLDNPDYQQDFFPKEAKPNGIFKGSTAENAEYLRVAPQSSEFIGA

> <PDB ID(s) of Target Chain>
1IVO,1M14,1M17,1MOX,1XKK,1Z9I,2GS2,2GS6,2ITW,2ITX,2ITY,2J5E,2J5F,2J6M,2RF9,2RGP,3B2V,3BEL,3GOP,3POZ,3QWQ,3VJO,3W2O,3W2P,3W2Q,3W2R,3W2S,3W32,3W33,4G5J,4I23,4JQ7,4JQ8,4JR3,4JRV,4KRO,4LI5,4RJ4,4RJ5,4RJ6,4RJ7,4RJ8,4TKS,4UIP,4UV7,4WKQ,4WRG,4ZAU,5C8K,5C8M,5C8N,5CAL,5CAN,5CAO,5CAP,5CAQ,5CAS,5CAU,5CAV,5EDP,5EDQ,5EDR,5EM5,5EM6,5EM7,5EM8,5FED,5GNK,5HCX,5HCY,5HCZ,5HIB,5HIC,5UGB,5WB7,5WB8,5Y25,6S89,6S8A

> <UniProt (SwissProt) Recommended Name of Target Chain>
Epidermal growth factor receptor

> <UniProt (SwissProt) Entry Name of Target Chain>
EGFR_HUMAN

> <UniProt (SwissProt) Primary ID of Target Chain>
P00533

> <UniProt (SwissProt) Secondary ID(s) of Target Chain>
O00688,O00732,P06268,Q14225,Q68GS5,Q92795,Q9BZS2,Q9GZX1,Q9H2C9,Q9H3C9,Q9UMD7,Q9UMD8,Q9UMG5

> <UniProt (SwissProt) Alternative ID(s) of Target Chain>


> <UniProt (TrEMBL) Submitted Name of Target Chain>


> <UniProt (TrEMBL) Entry Name of Target Chain>


> <UniProt (TrEMBL) Primary ID of Target Chain>


> <UniProt (TrEMBL) Secondary ID(s) of Target Chain>


> <UniProt (TrEMBL) Alternative ID(s) of Target Chain>


> <training label>
6.13668

> <i_lp_mmshare_version>
54117

> <s_epik_input>
W09IXVtDSDJdW0NAQEhdKE8xKVtDQEhdKFtPSF0pW0NASF0oW09IXSlbQ0BIXTFuMltjSF1uYyhjMjMpYyhuW2NIXW4zKVNbQ0gyXWMoW2NIXVtjSF00KVtjSF1bY0hdYzRJ

> <s_epik_cmdline>
J2VwaWtfcHl0aG9uJywgJy1waHQnLCAnMC4xJywgJy1waCcsICc3LjQnLCAnLXRuJywgJzgnLCAnLW1hJywgJzIwMCcsICctaW1hZScsICc8aW5maWxlLm1hZT4nLCAnLW9tYWUnLCAnPG91dGZpbGUubWFlPic=

> <r_lp_tautomer_probability>
1

> <r_epik_Ionization_Penalty>
  0.0001

> <r_epik_Ionization_Penalty_Charging>
  0.0000

> <r_epik_Ionization_Penalty_Neutral>
  0.0001

> <r_epik_State_Penalty>
  0.0000

> <r_epik_Charging_Adjusted_Penalty>
0

> <i_epik_Tot_Q>
0

> <i_epik_Tot_abs_Q>
0

> <i_f3d_flags>
0

> <s_lp_Force_Field>
OPLS_2005

> <r_lp_Energy>
41.262252

> <b_lp_Chiralities_Consistent>
1

> <s_lp_Variant>
BindingDB_50144606_mol_1-13

> <s_i_glide_gridfile>
struct_1_site_1

> <i_i_glide_lignum>
92

> <i_i_glide_rotatable_bonds>
8

> <r_i_docking_score>
-6.71731103568768

> <r_i_glide_ligand_efficiency>
-0.248789297618062

> <r_i_glide_ligand_efficiency_sa>
-0.746367892034217

> <r_i_glide_ligand_efficiency_ln>
-1.56367926558059

> <r_i_glide_gscore>
-6.71731103568768

> <r_i_glide_lipo>
-1.84917486700396

> <r_i_glide_hbond>
-0.304

> <r_i_glide_metal>
0

> <r_i_glide_rewards>
-1.90690791002551

> <r_i_glide_evdw>
-35.1018295288086

> <r_i_glide_ecoul>
-8.73335838317871

> <r_i_glide_erotb>
0.407866975259027

> <r_i_glide_esite>
0

> <r_i_glide_emodel>
-38.3587991399068

> <r_i_glide_energy>
-43.8351879119873

> <r_i_glide_einternal>
8.66578578948975

> <i_i_glide_confnum>
130

> <i_i_glide_posenum>
65

> <r_i_glide_eff_state_penalty>
0

> <PMID>
26826581

> <s_epik_Chemistry_Notes>
This compound contains an acetal/aminal-like group ( X-CH(R)-Y where X, Y are N, S, or O) that may be acid/base labile, releasing an aldehyde.

> <r_glide_shape_similarity>
0.776533424854279

> <s_m_subgroup_title>
505 training

> <s_m_subgroupid>
pocket_pv

> <b_m_subgroup_collapsed>
0

$$$$
/home/bortolaa/Project/GT/mario-master/ligands/set505ligs_train.sdf:28
                    3D
 Schrodinger Suite 2021-2.
 70 73  0  0  1  0            999 V2000
   17.1898    0.4797   51.9776 C   0  0  0  0  0  0
   15.7856    0.5185   52.1754 C   0  0  0  0  0  0
   15.1326    1.7047   51.7357 C   0  0  0  0  0  0
   15.7936    2.7145   51.1320 N   0  0  0  0  0  0
   17.0968    2.5589   50.9493 C   0  0  0  0  0  0
   17.8056    1.5139   51.3529 N   0  0  0  0  0  0
   13.7516    1.8349   51.9178 C   0  0  0  0  0  0
   12.9596    0.7842   52.4308 C   0  0  0  0  0  0
   13.6106   -0.3987   52.8755 C   0  0  0  0  0  0
   15.0271   -0.5094   52.7800 C   0  0  0  0  0  0
   12.8139   -1.4192   53.3614 O   0  0  0  0  0  0
   13.2654   -2.7577   53.1626 C   0  0  0  0  0  0
   11.5713    0.8450   52.4467 O   0  0  0  0  0  0
   10.9038    1.9966   51.8899 C   0  0  0  0  0  0
   10.9626    2.0633   50.3295 C   0  0  0  0  0  0
   10.6865    3.4344   49.7748 N   0  3  0  0  0  0
   11.8346    4.3905   49.8566 C   0  0  0  0  0  0
   10.0040    3.4276   48.4451 C   0  0  0  0  0  0
   13.0251    4.0630   48.9258 C   0  0  0  0  0  0
    8.5096    3.0354   48.5445 C   0  0  0  0  0  0
   18.0027   -0.5555   52.4876 N   0  0  0  0  0  0
   19.3870   -0.4657   52.7216 C   0  0  0  0  0  0
   19.9463   -1.0316   53.8934 C   0  0  0  0  0  0
   21.2921   -0.7738   54.2405 C   0  0  0  0  0  0
   22.0528    0.0708   53.4011 C   0  0  0  0  0  0
   21.5451    0.5229   52.1789 C   0  0  0  0  0  0
   20.2403    0.2081   51.8151 C   0  0  0  0  0  0
   23.2969    0.6058   53.7411 N   0  0  0  0  0  0
   24.3844   -0.1155   53.9534 C   0  0  0  0  0  0
   25.4583    0.5309   53.4644 N   0  0  0  0  0  0
   24.3825   -1.1839   54.5662 O   0  0  0  0  0  0
   26.7817    0.0529   53.4325 C   0  0  0  0  0  0
   27.0840   -1.3234   53.3026 C   0  0  0  0  0  0
   28.4171   -1.7593   53.3740 C   0  0  0  0  0  0
   29.4380   -0.8204   53.5774 C   0  0  0  0  0  0
   29.1518    0.5623   53.6289 C   0  0  0  0  0  0
   27.8183    1.0031   53.5360 C   0  0  0  0  0  0
   27.5228    2.3255   53.5861 F   0  0  0  0  0  0
   30.6963   -1.2663   53.7536 F   0  0  0  0  0  0
   17.6300    3.3611   50.4581 H   0  0  0  0  0  0
   13.3246    2.7623   51.5944 H   0  0  0  0  0  0
   15.5256   -1.3961   53.1281 H   0  0  0  0  0  0
   12.4732   -3.4575   53.4380 H   0  0  0  0  0  0
   13.5217   -2.9371   52.1138 H   0  0  0  0  0  0
   14.1340   -2.9918   53.7752 H   0  0  0  0  0  0
    9.8604    1.9373   52.1895 H   0  0  0  0  0  0
   11.2824    2.9062   52.3569 H   0  0  0  0  0  0
   11.9162    1.7060   49.9475 H   0  0  0  0  0  0
   10.2339    1.3498   49.9483 H   0  0  0  0  0  0
   11.4648    5.3887   49.6262 H   0  0  0  0  0  0
   12.1774    4.4582   50.8871 H   0  0  0  0  0  0
   10.0530    4.4314   48.0161 H   0  0  0  0  0  0
   10.5367    2.7663   47.7560 H   0  0  0  0  0  0
   13.8215    4.7961   49.0531 H   0  0  0  0  0  0
   13.4626    3.0883   49.1384 H   0  0  0  0  0  0
   12.7317    4.0770   47.8770 H   0  0  0  0  0  0
    8.0129    3.1861   47.5856 H   0  0  0  0  0  0
    8.3695    1.9856   48.8146 H   0  0  0  0  0  0
    7.9871    3.6442   49.2882 H   0  0  0  0  0  0
   17.5182   -1.2228   53.0647 H   0  0  0  0  0  0
   19.3273   -1.5959   54.5741 H   0  0  0  0  0  0
   21.6971   -1.1346   55.1757 H   0  0  0  0  0  0
   22.1502    1.1287   51.5203 H   0  0  0  0  0  0
   19.9076    0.5464   50.8461 H   0  0  0  0  0  0
   23.4797    1.5060   53.3249 H   0  0  0  0  0  0
   25.3403    1.4841   53.1456 H   0  0  0  0  0  0
   26.3021   -2.0583   53.1828 H   0  0  0  0  0  0
   28.6537   -2.8123   53.3195 H   0  0  0  0  0  0
   29.9540    1.2760   53.7617 H   0  0  0  0  0  0
   10.0044    3.8601   50.4237 H   0  0  0  0  0  0
  1  2  2  0  0  0
  1  6  1  0  0  0
  1 21  1  0  0  0
  2 10  1  0  0  0
  2  3  1  0  0  0
  3  4  2  0  0  0
  3  7  1  0  0  0
  4  5  1  0  0  0
  5  6  2  0  0  0
  5 40  1  0  0  0
  7  8  2  0  0  0
  7 41  1  0  0  0
  8  9  1  0  0  0
  8 13  1  0  0  0
  9 10  2  0  0  0
  9 11  1  0  0  0
 10 42  1  0  0  0
 11 12  1  0  0  0
 12 43  1  0  0  0
 12 44  1  0  0  0
 12 45  1  0  0  0
 13 14  1  0  0  0
 14 15  1  0  0  0
 14 46  1  0  0  0
 14 47  1  0  0  0
 15 16  1  0  0  0
 15 48  1  0  0  0
 15 49  1  0  0  0
 16 17  1  0  0  0
 16 18  1  0  0  0
 16 70  1  0  0  0
 17 19  1  0  0  0
 17 50  1  0  0  0
 17 51  1  0  0  0
 18 20  1  0  0  0
 18 52  1  0  0  0
 18 53  1  0  0  0
 19 54  1  0  0  0
 19 55  1  0  0  0
 19 56  1  0  0  0
 20 57  1  0  0  0
 20 58  1  0  0  0
 20 59  1  0  0  0
 21 22  1  0  0  0
 21 60  1  0  0  0
 22 23  2  0  0  0
 22 27  1  0  0  0
 23 24  1  0  0  0
 23 61  1  0  0  0
 24 25  2  0  0  0
 24 62  1  0  0  0
 25 26  1  0  0  0
 25 28  1  0  0  0
 26 27  2  0  0  0
 26 63  1  0  0  0
 27 64  1  0  0  0
 28 29  1  0  0  0
 28 65  1  0  0  0
 29 30  1  0  0  0
 29 31  2  0  0  0
 30 32  1  0  0  0
 30 66  1  0  0  0
 32 33  2  0  0  0
 32 37  1  0  0  0
 33 34  1  0  0  0
 33 67  1  0  0  0
 34 35  2  0  0  0
 34 68  1  0  0  0
 35 36  1  0  0  0
 35 39  1  0  0  0
 36 37  2  0  0  0
 36 69  1  0  0  0
 37 38  1  0  0  0
M  CHG  1  16   1
M  END
> <s_m_entry_id>
398

> <s_m_entry_name>
pocket_pv.209

> <s_m_Source_Path>
/home/bortolaa/Project/GT/mario-master/docking/set505protein_struct_1_site_1_set505ligs_train

> <s_m_Source_File>
pocket_pv.maegz

> <i_m_Source_File_Index>
209

> <From>
www.bindingDB.org

> <BindingDB Reactant_set_id>
406590

> <Ligand InChI>
InChI=1S/C28H30F2N6O3/c1-4-36(5-2)12-13-39-26-16-24-21(15-25(26)38-3)27(32-17-31-24)33-19-7-9-20(10-8-19)34-28(37)35-23-11-6-18(29)14-22(23)30/h6-11,14-17H,4-5,12-13H2,1-3H3,(H,31,32,33)(H2,34,35,37)

> <Ligand InChI Key>
UKKWLRXCWWCNJY-UHFFFAOYSA-N

> <BindingDB MonomerID>
233104

> <BindingDB Ligand Name>
N-{4-[7-(2-Diethylaminoethoxy)-6-methoxy-quinazolin-4-ylamino]phenyl}-N&#39;-(2,4-difluoro phenyl)urea hydrochloride (7f)

> <Target Name Assigned by Curator or DataSource>
Epidermal growth factor receptor

> <Target Source Organism According to Curator or DataSource>
Homo sapiens

> <Ki (nM)>


> <IC50 (nM)>
8300

> <Kd (nM)>


> <EC50 (nM)>


> <kon (M-1-s-1)>


> <koff (s-1)>


> <Temp C>


> <Curation/DataSource>
Curated from the literature by BindingDB

> <Article DOI>
10.3109/14756360903169485

> <PubChem AID>


> <Patent Number>


> <Authors>
Garofalo, A; Goossens, L; Lemoine, A; Farce, A; Arlot, Y; Depreux, P

> <Institution>
Université Lille Nord de France

> <Link to Ligand in BindingDB>
http://www.bindingdb.org/bind/chemsearch/marvin/MolStructure.jsp?monomerid=233104

> <Link to Ligand-Target Pair in BindingDB>
http://www.bindingdb.org/jsp/dbsearch/PrimarySearch_ki.jsp?energyterm=kJ/mole&tag=r21&monomerid=233104&enzyme=Epidermal+growth+factor+receptor&column=ki&startPg=0&Increment=50&submit=Search

> <Ligand HET ID in PDB>


> <PDB ID(s) for Ligand-Target Complex>


> <PubChem CID>
129010603

> <PubChem SID>
340093198

> <ChEBI ID of Ligand>


> <ChEMBL ID of Ligand>


> <DrugBank ID of Ligand>


> <IUPHAR_GRAC ID of Ligand>


> <KEGG ID of Ligand>


> <ZINC ID of Ligand>


> <Number of Protein Chains in Target (>
1

> <BindingDB Target Chain Sequence>
MRPSGTAGAALLALLAALCPASRALEEKKVCQGTSNKLTQLGTFEDHFLSLQRMFNNCEVVLGNLEITYVQRNYDLSFLKTIQEVAGYVLIALNTVERIPLENLQIIRGNMYYENSYALAVLSNYDANKTGLKELPMRNLQEILHGAVRFSNNPALCNVESIQWRDIVSSDFLSNMSMDFQNHLGSCQKCDPSCPNGSCWGAGEENCQKLTKIICAQQCSGRCRGKSPSDCCHNQCAAGCTGPRESDCLVCRKFRDEATCKDTCPPLMLYNPTTYQMDVNPEGKYSFGATCVKKCPRNYVVTDHGSCVRACGADSYEMEEDGVRKCKKCEGPCRKVCNGIGIGEFKDSLSINATNIKHFKNCTSISGDLHILPVAFRGDSFTHTPPLDPQELDILKTVKEITGFLLIQAWPENRTDLHAFENLEIIRGRTKQHGQFSLAVVSLNITSLGLRSLKEISDGDVIISGNKNLCYANTINWKKLFGTSGQKTKIISNRGENSCKATGQVCHALCSPEGCWGPEPRDCVSCRNVSRGRECVDKCNLLEGEPREFVENSECIQCHPECLPQAMNITCTGRGPDNCIQCAHYIDGPHCVKTCPAGVMGENNTLVWKYADAGHVCHLCHPNCTYGCTGPGLEGCPTNGPKIPSIATGMVGALLLLLVVALGIGLFMRRRHIVRKRTLRRLLQERELVEPLTPSGEAPNQALLRILKETEFKKIKVLGSGAFGTVYKGLWIPEGEKVKIPVAIKELREATSPKANKEILDEAYVMASVDNPHVCRLLGICLTSTVQLITQLMPFGCLLDYVREHKDNIGSQYLLNWCVQIAKGMNYLEDRRLVHRDLAARNVLVKTPQHVKITDFGLAKLLGAEEKEYHAEGGKVPIKWMALESILHRIYTHQSDVWSYGVTVWELMTFGSKPYDGIPASEISSILEKGERLPQPPICTIDVYMIMVKCWMIDADSRPKFRELIIEFSKMARDPQRYLVIQGDERMHLPSPTDSNFYRALMDEEDMDDVVDADEYLIPQQGFFSSPSTSRTPLLSSLSATSNNSTVACIDRNGLQSCPIKEDSFLQRYSSDPTGALTEDSIDDTFLPVPEYINQSVPKRPAGSVQNPVYHNQPLNPAPSRDPHYQDPHSTAVGNPEYLNTVQPTCVNSTFDSPAHWAQKGSHQISLDNPDYQQDFFPKEAKPNGIFKGSTAENAEYLRVAPQSSEFIGA

> <PDB ID(s) of Target Chain>
1IVO,1M14,1M17,1MOX,1XKK,1Z9I,2GS2,2GS6,2ITW,2ITX,2ITY,2J5E,2J5F,2J6M,2RF9,2RGP,3B2V,3BEL,3GOP,3POZ,3QWQ,3VJO,3W2O,3W2P,3W2Q,3W2R,3W2S,3W32,3W33,4G5J,4I23,4JQ7,4JQ8,4JR3,4JRV,4KRO,4LI5,4RJ4,4RJ5,4RJ6,4RJ7,4RJ8,4TKS,4UIP,4UV7,4WKQ,4WRG,4ZAU,5C8K,5C8M,5C8N,5CAL,5CAN,5CAO,5CAP,5CAQ,5CAS,5CAU,5CAV,5EDP,5EDQ,5EDR,5EM5,5EM6,5EM7,5EM8,5FED,5GNK,5HCX,5HCY,5HCZ,5HIB,5HIC,5UGB,5WB7,5WB8,5Y25,6S89,6S8A

> <UniProt (SwissProt) Recommended Name of Target Chain>
Epidermal growth factor receptor

> <UniProt (SwissProt) Entry Name of Target Chain>
EGFR_HUMAN

> <UniProt (SwissProt) Primary ID of Target Chain>
P00533

> <UniProt (SwissProt) Secondary ID(s) of Target Chain>
O00688,O00732,P06268,Q14225,Q68GS5,Q92795,Q9BZS2,Q9GZX1,Q9H2C9,Q9H3C9,Q9UMD7,Q9UMD8,Q9UMG5

> <UniProt (SwissProt) Alternative ID(s) of Target Chain>


> <UniProt (TrEMBL) Submitted Name of Target Chain>


> <UniProt (TrEMBL) Entry Name of Target Chain>


> <UniProt (TrEMBL) Primary ID of Target Chain>


> <UniProt (TrEMBL) Secondary ID(s) of Target Chain>


> <UniProt (TrEMBL) Alternative ID(s) of Target Chain>


> <training label>
5.08092

> <i_lp_mmshare_version>
54117

> <s_epik_input>
W0NIM11bQ0gyXU4oW0NIMl1bQ0gzXSlbQ0gyXVtDSDJdT2MoYyhbY0hdMSlPW0NIM10pW2NIXWMoYzEyKW5bY0hdbmMyW05IXWMzW2NIXVtjSF1jKFtjSF1bY0hdMylbTkhdQyg9TylbTkhdYzRbY0hdW2NIXWMoRilbY0hdYzRG

> <s_epik_cmdline>
J2VwaWtfcHl0aG9uJywgJy1waHQnLCAnMC4xJywgJy1waCcsICc3LjQnLCAnLXRuJywgJzgnLCAnLW1hJywgJzIwMCcsICctaW1hZScsICc8aW5maWxlLm1hZT4nLCAnLW9tYWUnLCAnPG91dGZpbGUubWFlPic=

> <r_lp_tautomer_probability>
0.999978000241998

> <r_epik_Ionization_Penalty>
  0.0610

> <r_epik_Ionization_Penalty_Charging>
  0.0604

> <r_epik_Ionization_Penalty_Neutral>
  0.0006

> <r_epik_State_Penalty>
  0.0524

> <r_epik_Charging_Adjusted_Penalty>
0.112841773912698

> <i_epik_Tot_Q>
1

> <i_epik_Tot_abs_Q>
1

> <i_f3d_flags>
0

> <s_lp_Force_Field>
OPLS_2005

> <r_lp_Energy>
47.832502

> <b_lp_Chiralities_Consistent>
1

> <s_lp_Variant>
/home/bortolaa/Project/GT/mario-master/ligands/set505ligs_train.sdf:28-1

> <s_i_glide_gridfile>
struct_1_site_1

> <i_i_glide_lignum>
28

> <i_i_glide_rotatable_bonds>
13

> <r_i_docking_score>
-6.70757963257547

> <r_i_glide_ligand_efficiency>
-0.171989221348089

> <r_i_glide_ligand_efficiency_sa>
-0.583251814798476

> <r_i_glide_ligand_efficiency_ln>
-1.438295479195

> <r_i_glide_gscore>
-6.75997963257547

> <r_i_glide_lipo>
-3.08619371316914

> <r_i_glide_hbond>
-0.2

> <r_i_glide_metal>
0

> <r_i_glide_rewards>
-0.504879735851098

> <r_i_glide_evdw>
-44.2883110046387

> <r_i_glide_ecoul>
-8.4833345413208

> <r_i_glide_erotb>
0.643323471532336

> <r_i_glide_esite>
-0.125313923657511

> <r_i_glide_emodel>
-32.843903564692

> <r_i_glide_energy>
-52.7716455459595

> <r_i_glide_einternal>
8.86257362365723

> <i_i_glide_confnum>
415

> <i_i_glide_posenum>
62

> <r_i_glide_eff_state_penalty>
0.0524

> <PMID>
20222760

> <r_glide_shape_similarity>
0.559296846389771

> <pH>
7.5

> <s_m_subgroup_title>
505 training

> <s_m_subgroupid>
pocket_pv

> <b_m_subgroup_collapsed>
0

$$$$
/home/bortolaa/Project/GT/mario-master/ligands/set505ligs_train.sdf:5
                    3D
 Schrodinger Suite 2021-2.
 70 73  0  0  1  0            999 V2000
   16.9583    0.4096   52.0930 C   0  0  0  0  0  0
   15.5627    0.3045   52.3380 C   0  0  0  0  0  0
   14.7701    1.4456   52.0214 C   0  0  0  0  0  0
   15.3134    2.5485   51.4646 N   0  0  0  0  0  0
   16.6187    2.5298   51.2222 C   0  0  0  0  0  0
   17.4505    1.5381   51.5270 N   0  0  0  0  0  0
   13.3883    1.4337   52.2927 C   0  0  0  0  0  0
   12.7515    0.2857   52.8170 C   0  0  0  0  0  0
   13.5320   -0.8675   53.0830 C   0  0  0  0  0  0
   14.9400   -0.8395   52.8773 C   0  0  0  0  0  0
   12.8647   -1.9915   53.5312 O   0  0  0  0  0  0
   13.4129   -3.2612   53.1812 C   0  0  0  0  0  0
   11.3883    0.2103   53.0526 O   0  0  0  0  0  0
   10.5118    1.2567   52.6079 C   0  0  0  0  0  0
   10.3004    1.2134   51.0694 C   0  0  0  0  0  0
    9.2518    2.1608   50.5742 N   0  3  0  0  0  0
    9.4828    2.5716   49.1547 C   0  0  0  0  0  0
    7.8501    1.7294   50.8812 C   0  0  0  0  0  0
    8.5962    3.7457   48.6882 C   0  0  0  0  0  0
    7.3392    0.5243   50.0558 C   0  0  0  0  0  0
   17.8771   -0.5775   52.5126 N   0  0  0  0  0  0
   19.2681   -0.4186   52.6572 C   0  0  0  0  0  0
   20.0109    0.3301   51.7152 C   0  0  0  0  0  0
   21.3329    0.6808   51.9824 C   0  0  0  0  0  0
   21.9515    0.2275   53.1520 C   0  0  0  0  0  0
   21.2833   -0.6503   54.0386 C   0  0  0  0  0  0
   19.9331   -0.9742   53.7780 C   0  0  0  0  0  0
   23.2096    0.7977   53.3853 N   0  0  0  0  0  0
   24.3138    0.1720   53.7745 C   0  0  0  0  0  0
   25.3825    0.9055   53.4122 N   0  0  0  0  0  0
   24.3278   -0.8857   54.4087 O   0  0  0  0  0  0
   26.7248    0.4972   53.4320 C   0  0  0  0  0  0
   27.0922   -0.8525   53.2214 C   0  0  0  0  0  0
   28.4410   -1.2302   53.2966 C   0  0  0  0  0  0
   29.4134   -0.2695   53.6093 C   0  0  0  0  0  0
   29.0608    1.0916   53.7536 C   0  0  0  0  0  0
   27.7125    1.4854   53.6358 C   0  0  0  0  0  0
   30.6905   -0.6670   53.7736 F   0  0  0  0  0  0
   28.8966   -2.8651   52.9827 Cl  0  0  0  0  0  0
   17.0476    3.4183   50.7873 H   0  0  0  0  0  0
   12.8389    2.3343   52.0666 H   0  0  0  0  0  0
   15.5396   -1.7013   53.1214 H   0  0  0  0  0  0
   12.7217   -4.0518   53.4731 H   0  0  0  0  0  0
   13.5631   -3.3344   52.1025 H   0  0  0  0  0  0
   14.3620   -3.4582   53.6737 H   0  0  0  0  0  0
    9.5633    1.0837   53.1132 H   0  0  0  0  0  0
   10.8465    2.2372   52.9467 H   0  0  0  0  0  0
   11.2480    1.4576   50.5919 H   0  0  0  0  0  0
   10.0684    0.1991   50.7477 H   0  0  0  0  0  0
   10.5231    2.8893   49.0475 H   0  0  0  0  0  0
    9.3567    1.7125   48.4935 H   0  0  0  0  0  0
    7.7570    1.4995   51.9434 H   0  0  0  0  0  0
    7.1833    2.5768   50.7288 H   0  0  0  0  0  0
    8.8884    4.0686   47.6889 H   0  0  0  0  0  0
    7.5398    3.4679   48.6473 H   0  0  0  0  0  0
    8.6974    4.6060   49.3558 H   0  0  0  0  0  0
    6.3148    0.2806   50.3290 H   0  0  0  0  0  0
    7.3329    0.7316   48.9834 H   0  0  0  0  0  0
    7.9380   -0.3756   50.2177 H   0  0  0  0  0  0
   17.4655   -1.2928   53.0943 H   0  0  0  0  0  0
   19.5766    0.6990   50.8015 H   0  0  0  0  0  0
   21.8543    1.3296   51.2965 H   0  0  0  0  0  0
   21.7581   -1.0023   54.9427 H   0  0  0  0  0  0
   19.3863   -1.5706   54.4914 H   0  0  0  0  0  0
   23.3682    1.6722   52.9121 H   0  0  0  0  0  0
   25.2268    1.8467   53.0809 H   0  0  0  0  0  0
   26.3530   -1.6080   53.0040 H   0  0  0  0  0  0
   29.8258    1.8255   53.9656 H   0  0  0  0  0  0
   27.4432    2.5273   53.7629 H   0  0  0  0  0  0
    9.3741    3.0247   51.1201 H   0  0  0  0  0  0
  1  2  2  0  0  0
  1  6  1  0  0  0
  1 21  1  0  0  0
  2 10  1  0  0  0
  2  3  1  0  0  0
  3  4  2  0  0  0
  3  7  1  0  0  0
  4  5  1  0  0  0
  5  6  2  0  0  0
  5 40  1  0  0  0
  7  8  2  0  0  0
  7 41  1  0  0  0
  8  9  1  0  0  0
  8 13  1  0  0  0
  9 10  2  0  0  0
  9 11  1  0  0  0
 10 42  1  0  0  0
 11 12  1  0  0  0
 12 43  1  0  0  0
 12 44  1  0  0  0
 12 45  1  0  0  0
 13 14  1  0  0  0
 14 15  1  0  0  0
 14 46  1  0  0  0
 14 47  1  0  0  0
 15 16  1  0  0  0
 15 48  1  0  0  0
 15 49  1  0  0  0
 16 17  1  0  0  0
 16 18  1  0  0  0
 16 70  1  0  0  0
 17 19  1  0  0  0
 17 50  1  0  0  0
 17 51  1  0  0  0
 18 20  1  0  0  0
 18 52  1  0  0  0
 18 53  1  0  0  0
 19 54  1  0  0  0
 19 55  1  0  0  0
 19 56  1  0  0  0
 20 57  1  0  0  0
 20 58  1  0  0  0
 20 59  1  0  0  0
 21 22  1  0  0  0
 21 60  1  0  0  0
 22 23  2  0  0  0
 22 27  1  0  0  0
 23 24  1  0  0  0
 23 61  1  0  0  0
 24 25  2  0  0  0
 24 62  1  0  0  0
 25 26  1  0  0  0
 25 28  1  0  0  0
 26 27  2  0  0  0
 26 63  1  0  0  0
 27 64  1  0  0  0
 28 29  1  0  0  0
 28 65  1  0  0  0
 29 30  1  0  0  0
 29 31  2  0  0  0
 30 32  1  0  0  0
 30 66  1  0  0  0
 32 33  2  0  0  0
 32 37  1  0  0  0
 33 34  1  0  0  0
 33 67  1  0  0  0
 34 35  2  0  0  0
 34 39  1  0  0  0
 35 36  1  0  0  0
 35 38  1  0  0  0
 36 37  2  0  0  0
 36 68  1  0  0  0
 37 69  1  0  0  0
M  CHG  1  16   1
M  END
> <s_m_entry_id>
399

> <s_m_entry_name>
pocket_pv.210

> <s_m_Source_Path>
/home/bortolaa/Project/GT/mario-master/docking/set505protein_struct_1_site_1_set505ligs_train

> <s_m_Source_File>
pocket_pv.maegz

> <i_m_Source_File_Index>
210

> <From>
www.bindingDB.org

> <BindingDB Reactant_set_id>
406593

> <Ligand InChI>
InChI=1S/C28H30ClFN6O3/c1-4-36(5-2)12-13-39-26-16-24-21(15-25(26)38-3)27(32-17-31-24)33-18-6-8-19(9-7-18)34-28(37)35-20-10-11-23(30)22(29)14-20/h6-11,14-17H,4-5,12-13H2,1-3H3,(H,31,32,33)(H2,34,35,37)

> <Ligand InChI Key>
UJAKSNDFLVIHGT-UHFFFAOYSA-N

> <BindingDB MonomerID>
233107

> <BindingDB Ligand Name>
N-{4-[7-(2-Diethylaminoethoxy)-6-methoxy-quinazolin-4-ylamino]phenyl}-N&#39;-(3-chloro-4-fluorophenyl)urea hydrochloride (7g)

> <Target Name Assigned by Curator or DataSource>
Epidermal growth factor receptor

> <Target Source Organism According to Curator or DataSource>
Homo sapiens

> <Ki (nM)>


> <IC50 (nM)>
43200

> <Kd (nM)>


> <EC50 (nM)>


> <kon (M-1-s-1)>


> <koff (s-1)>


> <Temp C>


> <Curation/DataSource>
Curated from the literature by BindingDB

> <Article DOI>
10.3109/14756360903169485

> <PubChem AID>


> <Patent Number>


> <Authors>
Garofalo, A; Goossens, L; Lemoine, A; Farce, A; Arlot, Y; Depreux, P

> <Institution>
Université Lille Nord de France

> <Link to Ligand in BindingDB>
http://www.bindingdb.org/bind/chemsearch/marvin/MolStructure.jsp?monomerid=233107

> <Link to Ligand-Target Pair in BindingDB>
http://www.bindingdb.org/jsp/dbsearch/PrimarySearch_ki.jsp?energyterm=kJ/mole&tag=r21&monomerid=233107&enzyme=Epidermal+growth+factor+receptor&column=ki&startPg=0&Increment=50&submit=Search

> <Ligand HET ID in PDB>


> <PDB ID(s) for Ligand-Target Complex>


> <PubChem CID>
129010605

> <PubChem SID>
340093201

> <ChEBI ID of Ligand>


> <ChEMBL ID of Ligand>


> <DrugBank ID of Ligand>


> <IUPHAR_GRAC ID of Ligand>


> <KEGG ID of Ligand>


> <ZINC ID of Ligand>


> <Number of Protein Chains in Target (>
1

> <BindingDB Target Chain Sequence>
MRPSGTAGAALLALLAALCPASRALEEKKVCQGTSNKLTQLGTFEDHFLSLQRMFNNCEVVLGNLEITYVQRNYDLSFLKTIQEVAGYVLIALNTVERIPLENLQIIRGNMYYENSYALAVLSNYDANKTGLKELPMRNLQEILHGAVRFSNNPALCNVESIQWRDIVSSDFLSNMSMDFQNHLGSCQKCDPSCPNGSCWGAGEENCQKLTKIICAQQCSGRCRGKSPSDCCHNQCAAGCTGPRESDCLVCRKFRDEATCKDTCPPLMLYNPTTYQMDVNPEGKYSFGATCVKKCPRNYVVTDHGSCVRACGADSYEMEEDGVRKCKKCEGPCRKVCNGIGIGEFKDSLSINATNIKHFKNCTSISGDLHILPVAFRGDSFTHTPPLDPQELDILKTVKEITGFLLIQAWPENRTDLHAFENLEIIRGRTKQHGQFSLAVVSLNITSLGLRSLKEISDGDVIISGNKNLCYANTINWKKLFGTSGQKTKIISNRGENSCKATGQVCHALCSPEGCWGPEPRDCVSCRNVSRGRECVDKCNLLEGEPREFVENSECIQCHPECLPQAMNITCTGRGPDNCIQCAHYIDGPHCVKTCPAGVMGENNTLVWKYADAGHVCHLCHPNCTYGCTGPGLEGCPTNGPKIPSIATGMVGALLLLLVVALGIGLFMRRRHIVRKRTLRRLLQERELVEPLTPSGEAPNQALLRILKETEFKKIKVLGSGAFGTVYKGLWIPEGEKVKIPVAIKELREATSPKANKEILDEAYVMASVDNPHVCRLLGICLTSTVQLITQLMPFGCLLDYVREHKDNIGSQYLLNWCVQIAKGMNYLEDRRLVHRDLAARNVLVKTPQHVKITDFGLAKLLGAEEKEYHAEGGKVPIKWMALESILHRIYTHQSDVWSYGVTVWELMTFGSKPYDGIPASEISSILEKGERLPQPPICTIDVYMIMVKCWMIDADSRPKFRELIIEFSKMARDPQRYLVIQGDERMHLPSPTDSNFYRALMDEEDMDDVVDADEYLIPQQGFFSSPSTSRTPLLSSLSATSNNSTVACIDRNGLQSCPIKEDSFLQRYSSDPTGALTEDSIDDTFLPVPEYINQSVPKRPAGSVQNPVYHNQPLNPAPSRDPHYQDPHSTAVGNPEYLNTVQPTCVNSTFDSPAHWAQKGSHQISLDNPDYQQDFFPKEAKPNGIFKGSTAENAEYLRVAPQSSEFIGA

> <PDB ID(s) of Target Chain>
1IVO,1M14,1M17,1MOX,1XKK,1Z9I,2GS2,2GS6,2ITW,2ITX,2ITY,2J5E,2J5F,2J6M,2RF9,2RGP,3B2V,3BEL,3GOP,3POZ,3QWQ,3VJO,3W2O,3W2P,3W2Q,3W2R,3W2S,3W32,3W33,4G5J,4I23,4JQ7,4JQ8,4JR3,4JRV,4KRO,4LI5,4RJ4,4RJ5,4RJ6,4RJ7,4RJ8,4TKS,4UIP,4UV7,4WKQ,4WRG,4ZAU,5C8K,5C8M,5C8N,5CAL,5CAN,5CAO,5CAP,5CAQ,5CAS,5CAU,5CAV,5EDP,5EDQ,5EDR,5EM5,5EM6,5EM7,5EM8,5FED,5GNK,5HCX,5HCY,5HCZ,5HIB,5HIC,5UGB,5WB7,5WB8,5Y25,6S89,6S8A

> <UniProt (SwissProt) Recommended Name of Target Chain>
Epidermal growth factor receptor

> <UniProt (SwissProt) Entry Name of Target Chain>
EGFR_HUMAN

> <UniProt (SwissProt) Primary ID of Target Chain>
P00533

> <UniProt (SwissProt) Secondary ID(s) of Target Chain>
O00688,O00732,P06268,Q14225,Q68GS5,Q92795,Q9BZS2,Q9GZX1,Q9H2C9,Q9H3C9,Q9UMD7,Q9UMD8,Q9UMG5

> <UniProt (SwissProt) Alternative ID(s) of Target Chain>


> <UniProt (TrEMBL) Submitted Name of Target Chain>


> <UniProt (TrEMBL) Entry Name of Target Chain>


> <UniProt (TrEMBL) Primary ID of Target Chain>


> <UniProt (TrEMBL) Secondary ID(s) of Target Chain>


> <UniProt (TrEMBL) Alternative ID(s) of Target Chain>


> <training label>
4.36452

> <i_lp_mmshare_version>
54117

> <s_epik_input>
W0NIM11bQ0gyXU4oW0NIMl1bQ0gzXSlbQ0gyXVtDSDJdT2MoYyhbY0hdMSlPW0NIM10pW2NIXWMoYzEyKW5bY0hdbmMyW05IXWMzW2NIXVtjSF1jKFtjSF1bY0hdMylbTkhdQyg9TylbTkhdYzRbY0hdYyhDbCljKEYpW2NIXVtjSF00

> <s_epik_cmdline>
J2VwaWtfcHl0aG9uJywgJy1waHQnLCAnMC4xJywgJy1waCcsICc3LjQnLCAnLXRuJywgJzgnLCAnLW1hJywgJzIwMCcsICctaW1hZScsICc8aW5maWxlLm1hZT4nLCAnLW9tYWUnLCAnPG91dGZpbGUubWFlPic=

> <r_lp_tautomer_probability>
0.999978000241998

> <r_epik_Ionization_Penalty>
  0.0610

> <r_epik_Ionization_Penalty_Charging>
  0.0604

> <r_epik_Ionization_Penalty_Neutral>
  0.0006

> <r_epik_State_Penalty>
  0.0524

> <r_epik_Charging_Adjusted_Penalty>
0.112841773912698

> <i_epik_Tot_Q>
1

> <i_epik_Tot_abs_Q>
1

> <i_f3d_flags>
0

> <s_lp_Force_Field>
OPLS_2005

> <r_lp_Energy>
45.491073

> <b_lp_Chiralities_Consistent>
1

> <s_lp_Variant>
/home/bortolaa/Project/GT/mario-master/ligands/set505ligs_train.sdf:5-1

> <s_i_glide_gridfile>
struct_1_site_1

> <i_i_glide_lignum>
5

> <i_i_glide_rotatable_bonds>
13

> <r_i_docking_score>
-6.7059140528413

> <r_i_glide_ligand_efficiency>
-0.171946514175418

> <r_i_glide_ligand_efficiency_sa>
-0.583106985745992

> <r_i_glide_ligand_efficiency_ln>
-1.4379383316197

> <r_i_glide_gscore>
-6.7583140528413

> <r_i_glide_lipo>
-3.09930256384689

> <r_i_glide_hbond>
-0.208908271349911

> <r_i_glide_metal>
0

> <r_i_glide_rewards>
-0.391559653561125

> <r_i_glide_evdw>
-47.7623100280762

> <r_i_glide_ecoul>
-7.34074926376343

> <r_i_glide_erotb>
0.535444017143925

> <r_i_glide_esite>
-0.104759690258979

> <r_i_glide_emodel>
-37.6611680742776

> <r_i_glide_energy>
-55.1030592918396

> <r_i_glide_einternal>
3.63602375984192

> <i_i_glide_confnum>
340

> <i_i_glide_posenum>
312

> <r_i_glide_eff_state_penalty>
0.0524

> <PMID>
20222760

> <r_glide_shape_similarity>
0.551759779453278

> <pH>
7.5

> <s_m_subgroup_title>
505 training

> <s_m_subgroupid>
pocket_pv

> <b_m_subgroup_collapsed>
0

$$$$
BindingDB_50144606_mol_1
                    3D
 Schrodinger Suite 2021-2.
 44 47  0  0  1  0            999 V2000
   24.9356    0.6461   53.0196 N   0  0  0  0  0  0
   26.3599    0.5809   52.6081 C   0  0  1  0  0  0
   24.2285   -0.1436   53.8976 C   0  0  0  0  0  0
   22.8761    0.2246   53.7080 C   0  0  0  0  0  0
   22.7541    1.2882   52.8498 N   0  0  0  0  0  0
   27.1904    1.7557   53.0880 C   0  0  2  0  0  0
   24.0196    1.4796   52.5065 C   0  0  0  0  0  0
   26.9561   -0.5572   53.0998 O   0  0  0  0  0  0
   28.5207    1.0915   53.4094 C   0  0  2  0  0  0
   28.3431   -0.3621   52.9505 C   0  0  1  0  0  0
   21.9472   -0.5236   54.4399 C   0  0  0  0  0  0
   24.6609   -1.0924   54.7691 N   0  0  0  0  0  0
   22.3413   -1.4894   55.2796 N   0  0  0  0  0  0
   20.2930   -0.0691   54.5748 S   0  0  0  0  0  0
   23.6518   -1.6674   55.4190 C   0  0  0  0  0  0
   26.6063    2.4407   54.1732 O   0  0  0  0  0  0
   28.7225    1.1403   54.7920 O   0  0  0  0  0  0
   19.3901   -1.1547   53.4992 C   0  0  0  0  0  0
   19.1446    1.5732   50.1951 C   0  0  0  0  0  0
   19.2440   -0.3243   52.2615 C   0  0  0  0  0  0
   29.1268   -1.4213   53.6957 C   0  0  0  0  0  0
   19.0885    3.0035   48.6874 I   0  0  0  0  0  0
   20.3544    0.9265   50.4907 C   0  0  0  0  0  0
   17.9760    1.2537   50.9186 C   0  0  0  0  0  0
   20.3913   -0.0564   51.4941 C   0  0  0  0  0  0
   18.0256    0.3107   51.9644 C   0  0  0  0  0  0
   29.1528   -2.6168   52.9765 O   0  0  0  0  0  0
   26.3218    0.5171   51.5187 H   0  0  0  0  0  0
   27.3034    2.4606   52.2651 H   0  0  0  0  0  0
   24.2671    2.2433   51.7856 H   0  0  0  0  0  0
   29.3603    1.5726   52.9057 H   0  0  0  0  0  0
   28.6255   -0.4674   51.9103 H   0  0  0  0  0  0
   23.9466   -2.4365   56.1161 H   0  0  0  0  0  0
   26.2110    3.2441   53.8457 H   0  0  0  0  0  0
   28.1468    1.8431   55.0942 H   0  0  0  0  0  0
   19.9359   -2.0879   53.3696 H   0  0  0  0  0  0
   18.4158   -1.3904   53.9394 H   0  0  0  0  0  0
   28.6436   -1.6223   54.6240 H   0  0  0  0  0  0
   30.1514   -1.0948   53.8786 H   0  0  0  0  0  0
   21.2462    1.1632   49.9326 H   0  0  0  0  0  0
   17.0495    1.7648   50.6924 H   0  0  0  0  0  0
   21.3298   -0.5483   51.7022 H   0  0  0  0  0  0
   17.1439    0.1173   52.5615 H   0  0  0  0  0  0
   28.3063   -3.0301   53.0669 H   0  0  0  0  0  0
  1  2  1  0  0  0
  1  3  1  0  0  0
  1  7  1  0  0  0
  2  6  1  0  0  0
  2  8  1  0  0  0
  2 28  1  0  0  0
  3  4  2  0  0  0
  3 12  1  0  0  0
  4 11  1  0  0  0
  4  5  1  0  0  0
  5  7  2  0  0  0
  6  9  1  0  0  0
  6 16  1  0  0  0
  6 29  1  0  0  0
  7 30  1  0  0  0
  8 10  1  0  0  0
  9 17  1  0  0  0
  9 10  1  0  0  0
  9 31  1  0  0  0
 10 21  1  0  0  0
 10 32  1  0  0  0
 11 14  1  0  0  0
 11 13  2  0  0  0
 12 15  2  0  0  0
 13 15  1  0  0  0
 14 18  1  0  0  0
 15 33  1  0  0  0
 16 34  1  0  0  0
 17 35  1  0  0  0
 18 20  1  0  0  0
 18 36  1  0  0  0
 18 37  1  0  0  0
 19 24  2  0  0  0
 19 22  1  0  0  0
 19 23  1  0  0  0
 20 25  1  0  0  0
 20 26  2  0  0  0
 21 27  1  0  0  0
 21 38  1  0  0  0
 21 39  1  0  0  0
 23 25  2  0  0  0
 23 40  1  0  0  0
 24 26  1  0  0  0
 24 41  1  0  0  0
 25 42  1  0  0  0
 26 43  1  0  0  0
 27 44  1  0  0  0
M  END
> <s_m_entry_id>
400

> <s_m_entry_name>
pocket_pv.211

> <s_m_Source_Path>
/home/bortolaa/Project/GT/mario-master/docking/set505protein_struct_1_site_1_set505ligs_train

> <s_m_Source_File>
pocket_pv.maegz

> <i_m_Source_File_Index>
211

> <From>
www.bindingDB.org

> <BindingDB Reactant_set_id>
50463846

> <Ligand InChI>
InChI=1S/C29H23ClN4O3/c1-36-26-15-23-25(16-27(26)37-17-19-7-3-2-4-8-19)31-18-32-28(23)33-20-11-13-21(14-12-20)34-29(35)22-9-5-6-10-24(22)30/h2-16,18H,17H2,1H3,(H,34,35)(H,31,32,33)

> <Ligand InChI Key>
JASSTMZJDQXQFP-UHFFFAOYSA-N

> <BindingDB MonomerID>
50144606

> <BindingDB Ligand Name>
CHEMBL3759203

> <Target Name Assigned by Curator or DataSource>
Epidermal growth factor receptor

> <Target Source Organism According to Curator or DataSource>
Homo sapiens

> <Ki (nM)>


> <IC50 (nM)>
730

> <Kd (nM)>


> <EC50 (nM)>


> <kon (M-1-s-1)>


> <koff (s-1)>


> <pH>


> <Temp C>


> <Curation/DataSource>
ChEMBL

> <Article DOI>
10.1016/j.ejmech.2015.12.032

> <PubChem AID>


> <Patent Number>


> <Authors>
Zhang, HQ; Gong, FH; Li, CG; Zhang, C; Wang, YJ; Xu, YG; Sun, LP

> <Institution>
China Pharmaceutical University

> <Link to Ligand in BindingDB>
http://www.bindingdb.org/bind/chemsearch/marvin/MolStructure.jsp?monomerid=50144606

> <Link to Ligand-Target Pair in BindingDB>
http://www.bindingdb.org/jsp/dbsearch/PrimarySearch_ki.jsp?energyterm=kJ/mole&tag=r21&monomerid=50144606&enzyme=Epidermal+growth+factor+receptor&column=ki&startPg=0&Increment=50&submit=Search

> <Ligand HET ID in PDB>


> <PDB ID(s) for Ligand-Target Complex>


> <PubChem CID>
44312149

> <PubChem SID>
104033684

> <ChEBI ID of Ligand>


> <ChEMBL ID of Ligand>
CHEMBL3759203

> <DrugBank ID of Ligand>


> <IUPHAR_GRAC ID of Ligand>


> <KEGG ID of Ligand>


> <ZINC ID of Ligand>
ZINC36332177

> <Number of Protein Chains in Target (>
1

> <BindingDB Target Chain Sequence>
MRPSGTAGAALLALLAALCPASRALEEKKVCQGTSNKLTQLGTFEDHFLSLQRMFNNCEVVLGNLEITYVQRNYDLSFLKTIQEVAGYVLIALNTVERIPLENLQIIRGNMYYENSYALAVLSNYDANKTGLKELPMRNLQEILHGAVRFSNNPALCNVESIQWRDIVSSDFLSNMSMDFQNHLGSCQKCDPSCPNGSCWGAGEENCQKLTKIICAQQCSGRCRGKSPSDCCHNQCAAGCTGPRESDCLVCRKFRDEATCKDTCPPLMLYNPTTYQMDVNPEGKYSFGATCVKKCPRNYVVTDHGSCVRACGADSYEMEEDGVRKCKKCEGPCRKVCNGIGIGEFKDSLSINATNIKHFKNCTSISGDLHILPVAFRGDSFTHTPPLDPQELDILKTVKEITGFLLIQAWPENRTDLHAFENLEIIRGRTKQHGQFSLAVVSLNITSLGLRSLKEISDGDVIISGNKNLCYANTINWKKLFGTSGQKTKIISNRGENSCKATGQVCHALCSPEGCWGPEPRDCVSCRNVSRGRECVDKCNLLEGEPREFVENSECIQCHPECLPQAMNITCTGRGPDNCIQCAHYIDGPHCVKTCPAGVMGENNTLVWKYADAGHVCHLCHPNCTYGCTGPGLEGCPTNGPKIPSIATGMVGALLLLLVVALGIGLFMRRRHIVRKRTLRRLLQERELVEPLTPSGEAPNQALLRILKETEFKKIKVLGSGAFGTVYKGLWIPEGEKVKIPVAIKELREATSPKANKEILDEAYVMASVDNPHVCRLLGICLTSTVQLITQLMPFGCLLDYVREHKDNIGSQYLLNWCVQIAKGMNYLEDRRLVHRDLAARNVLVKTPQHVKITDFGLAKLLGAEEKEYHAEGGKVPIKWMALESILHRIYTHQSDVWSYGVTVWELMTFGSKPYDGIPASEISSILEKGERLPQPPICTIDVYMIMVKCWMIDADSRPKFRELIIEFSKMARDPQRYLVIQGDERMHLPSPTDSNFYRALMDEEDMDDVVDADEYLIPQQGFFSSPSTSRTPLLSSLSATSNNSTVACIDRNGLQSCPIKEDSFLQRYSSDPTGALTEDSIDDTFLPVPEYINQSVPKRPAGSVQNPVYHNQPLNPAPSRDPHYQDPHSTAVGNPEYLNTVQPTCVNSTFDSPAHWAQKGSHQISLDNPDYQQDFFPKEAKPNGIFKGSTAENAEYLRVAPQSSEFIGA

> <PDB ID(s) of Target Chain>
1IVO,1M14,1M17,1MOX,1XKK,1Z9I,2GS2,2GS6,2ITW,2ITX,2ITY,2J5E,2J5F,2J6M,2RF9,2RGP,3B2V,3BEL,3GOP,3POZ,3QWQ,3VJO,3W2O,3W2P,3W2Q,3W2R,3W2S,3W32,3W33,4G5J,4I23,4JQ7,4JQ8,4JR3,4JRV,4KRO,4LI5,4RJ4,4RJ5,4RJ6,4RJ7,4RJ8,4TKS,4UIP,4UV7,4WKQ,4WRG,4ZAU,5C8K,5C8M,5C8N,5CAL,5CAN,5CAO,5CAP,5CAQ,5CAS,5CAU,5CAV,5EDP,5EDQ,5EDR,5EM5,5EM6,5EM7,5EM8,5FED,5GNK,5HCX,5HCY,5HCZ,5HIB,5HIC,5UGB,5WB7,5WB8,5Y25,6S89,6S8A

> <UniProt (SwissProt) Recommended Name of Target Chain>
Epidermal growth factor receptor

> <UniProt (SwissProt) Entry Name of Target Chain>
EGFR_HUMAN

> <UniProt (SwissProt) Primary ID of Target Chain>
P00533

> <UniProt (SwissProt) Secondary ID(s) of Target Chain>
O00688,O00732,P06268,Q14225,Q68GS5,Q92795,Q9BZS2,Q9GZX1,Q9H2C9,Q9H3C9,Q9UMD7,Q9UMD8,Q9UMG5

> <UniProt (SwissProt) Alternative ID(s) of Target Chain>


> <UniProt (TrEMBL) Submitted Name of Target Chain>


> <UniProt (TrEMBL) Entry Name of Target Chain>


> <UniProt (TrEMBL) Primary ID of Target Chain>


> <UniProt (TrEMBL) Secondary ID(s) of Target Chain>


> <UniProt (TrEMBL) Alternative ID(s) of Target Chain>


> <training label>
6.13668

> <i_lp_mmshare_version>
54117

> <s_epik_input>
W09IXVtDSDJdW0NAQEhdKE8xKVtDQEhdKFtPSF0pW0NASF0oW09IXSlbQ0BASF0xbjJbY0hdbmMoYzIzKWMobltjSF1uMylTW0NIMl1jKFtjSF1bY0hdNClbY0hdW2NIXWM0SQ==

> <s_epik_cmdline>
J2VwaWtfcHl0aG9uJywgJy1waHQnLCAnMC4xJywgJy1waCcsICc3LjQnLCAnLXRuJywgJzgnLCAnLW1hJywgJzIwMCcsICctaW1hZScsICc8aW5maWxlLm1hZT4nLCAnLW9tYWUnLCAnPG91dGZpbGUubWFlPic=

> <r_lp_tautomer_probability>
1

> <r_epik_Ionization_Penalty>
  0.0001

> <r_epik_Ionization_Penalty_Charging>
  0.0000

> <r_epik_Ionization_Penalty_Neutral>
  0.0001

> <r_epik_State_Penalty>
  0.0000

> <r_epik_Charging_Adjusted_Penalty>
0

> <i_epik_Tot_Q>
0

> <i_epik_Tot_abs_Q>
0

> <i_f3d_flags>
0

> <s_lp_Force_Field>
OPLS_2005

> <r_lp_Energy>
47.302895

> <b_lp_Chiralities_Consistent>
1

> <s_lp_Variant>
BindingDB_50144606_mol_1-14

> <s_i_glide_gridfile>
struct_1_site_1

> <i_i_glide_lignum>
93

> <i_i_glide_rotatable_bonds>
8

> <r_i_docking_score>
-6.69258687850783

> <r_i_glide_ligand_efficiency>
-0.247873588092883

> <r_i_glide_ligand_efficiency_sa>
-0.743620763461697

> <r_i_glide_ligand_efficiency_ln>
-1.55792388939871

> <r_i_glide_gscore>
-6.69258687850783

> <r_i_glide_lipo>
-2.29827987026164

> <r_i_glide_hbond>
-0.0781568360079796

> <r_i_glide_metal>
0

> <r_i_glide_rewards>
-2.10576808877379

> <r_i_glide_evdw>
-34.0919952392578

> <r_i_glide_ecoul>
-6.09099531173706

> <r_i_glide_erotb>
0.407866975259027

> <r_i_glide_esite>
0

> <r_i_glide_emodel>
-34.2959253477602

> <r_i_glide_energy>
-40.1829905509949

> <r_i_glide_einternal>
3.22101926803589

> <i_i_glide_confnum>
82

> <i_i_glide_posenum>
8

> <r_i_glide_eff_state_penalty>
0

> <PMID>
26826581

> <s_epik_Chemistry_Notes>
This compound contains an acetal/aminal-like group ( X-CH(R)-Y where X, Y are N, S, or O) that may be acid/base labile, releasing an aldehyde.

> <r_glide_shape_similarity>
0.782216608524323

> <s_m_subgroup_title>
505 training

> <s_m_subgroupid>
pocket_pv

> <b_m_subgroup_collapsed>
0

$$$$
/home/bortolaa/Project/GT/mario-master/ligands/set505ligs_train.sdf:83
                    3D
 Schrodinger Suite 2021-2.
 73 76  0  0  1  0            999 V2000
   17.8881    1.1367   50.9817 C   0  0  0  0  0  0
   16.8105    0.3722   51.5255 C   0  0  0  0  0  0
   17.0948   -0.6276   52.4800 C   0  0  0  0  0  0
   19.2029    0.9574   51.5017 C   0  0  0  0  0  0
   19.4474   -0.0357   52.4842 C   0  0  0  0  0  0
   18.3922   -0.8715   52.9191 C   0  0  0  0  0  0
   18.6024   -1.9060   53.7461 N   0  0  0  0  0  0
   19.8342   -2.0655   54.2009 C   0  0  0  0  0  0
   20.8787   -1.2869   53.9539 N   0  0  0  0  0  0
   20.7066   -0.2801   53.0748 C   0  0  0  0  0  0
   21.7845    0.5364   52.7315 N   0  0  0  0  0  0
   23.1179    0.5291   53.1606 C   0  0  0  0  0  0
   23.9272    1.5935   52.7015 C   0  0  0  0  0  0
   25.2857    1.6808   53.0628 C   0  0  0  0  0  0
   25.8385    0.6785   53.8825 C   0  0  0  0  0  0
   25.0416   -0.3939   54.3368 C   0  0  0  0  0  0
   23.6912   -0.4721   53.9831 C   0  0  0  0  0  0
   17.6083    2.0390   49.9661 O   0  0  0  0  0  0
   18.6921    2.5220   49.1668 C   0  0  0  0  0  0
   15.5158    0.5970   51.0885 O   0  0  0  0  0  0
   14.4505   -0.1594   51.6885 C   0  0  0  0  0  0
   14.1094    0.3441   53.1147 C   0  0  0  0  0  0
   12.8683    1.2651   53.2138 C   0  0  0  0  0  0
   12.9759    2.4777   52.3800 N   0  0  1  0  0  0
   12.0620    2.3873   51.2226 C   0  0  0  0  0  0
   12.2176    3.6174   50.3032 C   0  0  0  0  0  0
   11.8889    4.8575   51.0533 N   0  3  0  0  0  0
   12.7216    4.9599   52.2838 C   0  0  0  0  0  0
   12.5961    3.6749   53.1515 C   0  0  0  0  0  0
   11.8875    6.0780   50.2009 C   0  0  0  0  0  0
   27.2485    0.7398   54.3302 C   0  0  0  0  0  0
   28.1237    1.1047   53.3870 N   0  0  0  0  0  0
   27.5617    0.3337   55.4524 O   0  0  0  0  0  0
   29.5349    0.7395   53.4408 C   0  0  0  0  0  0
   29.7199   -0.7900   53.5348 C   0  0  0  0  0  0
   28.7215   -1.5060   52.9749 O   0  0  0  0  0  0
   30.6897   -1.2662   54.1221 O   0  0  0  0  0  0
   28.7678   -2.9188   52.9985 C   0  0  0  0  0  0
   16.3390   -1.2623   52.9108 H   0  0  0  0  0  0
   20.0137    1.5682   51.1420 H   0  0  0  0  0  0
   19.9435   -2.8340   54.9474 H   0  0  0  0  0  0
   21.5544    1.2795   52.0883 H   0  0  0  0  0  0
   23.5065    2.3672   52.0735 H   0  0  0  0  0  0
   25.8799    2.5187   52.7244 H   0  0  0  0  0  0
   25.4610   -1.1641   54.9698 H   0  0  0  0  0  0
   23.1694   -1.3313   54.3700 H   0  0  0  0  0  0
   18.2938    3.0404   48.2963 H   0  0  0  0  0  0
   19.3023    3.2304   49.7273 H   0  0  0  0  0  0
   19.3164    1.7039   48.7980 H   0  0  0  0  0  0
   13.5748   -0.1154   51.0456 H   0  0  0  0  0  0
   14.6666   -1.2270   51.6804 H   0  0  0  0  0  0
   13.9279   -0.5207   53.7541 H   0  0  0  0  0  0
   14.9631    0.8567   53.5585 H   0  0  0  0  0  0
   11.9638    0.7078   52.9711 H   0  0  0  0  0  0
   12.7550    1.5431   54.2631 H   0  0  0  0  0  0
   12.2688    1.5022   50.6288 H   0  0  0  0  0  0
   11.0278    2.2943   51.5688 H   0  0  0  0  0  0
   11.5510    3.5126   49.4482 H   0  0  0  0  0  0
   13.2335    3.6817   49.9110 H   0  0  0  0  0  0
   12.3969    5.8300   52.8570 H   0  0  0  0  0  0
   13.7647    5.1321   52.0060 H   0  0  0  0  0  0
   11.5798    3.5666   53.5231 H   0  0  0  0  0  0
   13.2442    3.7589   54.0242 H   0  0  0  0  0  0
   12.8747    6.2814   49.7791 H   0  0  0  0  0  0
   11.1831    5.9532   49.3793 H   0  0  0  0  0  0
   11.5712    6.9504   50.7734 H   0  0  0  0  0  0
   27.7507    1.4445   52.5117 H   0  0  0  0  0  0
   29.9926    1.2049   54.3125 H   0  0  0  0  0  0
   30.0635    1.1334   52.5755 H   0  0  0  0  0  0
   27.7922   -3.3281   52.7335 H   0  0  0  0  0  0
   29.0371   -3.3049   53.9825 H   0  0  0  0  0  0
   29.4890   -3.2673   52.2617 H   0  0  0  0  0  0
   10.9072    4.7502   51.3679 H   0  0  0  0  0  0
  1  2  2  0  0  0
  1  4  1  0  0  0
  1 18  1  0  0  0
  2  3  1  0  0  0
  2 20  1  0  0  0
  3  6  2  0  0  0
  3 39  1  0  0  0
  4  5  2  0  0  0
  4 40  1  0  0  0
  5  6  1  0  0  0
  5 10  1  0  0  0
  6  7  1  0  0  0
  7  8  2  0  0  0
  8  9  1  0  0  0
  8 41  1  0  0  0
  9 10  2  0  0  0
 10 11  1  0  0  0
 11 12  1  0  0  0
 11 42  1  0  0  0
 12 13  2  0  0  0
 12 17  1  0  0  0
 13 14  1  0  0  0
 13 43  1  0  0  0
 14 15  2  0  0  0
 14 44  1  0  0  0
 15 16  1  0  0  0
 15 31  1  0  0  0
 16 17  2  0  0  0
 16 45  1  0  0  0
 17 46  1  0  0  0
 18 19  1  0  0  0
 19 47  1  0  0  0
 19 48  1  0  0  0
 19 49  1  0  0  0
 20 21  1  0  0  0
 21 22  1  0  0  0
 21 50  1  0  0  0
 21 51  1  0  0  0
 22 23  1  0  0  0
 22 52  1  0  0  0
 22 53  1  0  0  0
 23 24  1  0  0  0
 23 54  1  0  0  0
 23 55  1  0  0  0
 24 25  1  0  0  0
 24 29  1  0  0  0
 25 26  1  0  0  0
 25 56  1  0  0  0
 25 57  1  0  0  0
 26 27  1  0  0  0
 26 58  1  0  0  0
 26 59  1  0  0  0
 27 28  1  0  0  0
 27 30  1  0  0  0
 27 73  1  0  0  0
 28 29  1  0  0  0
 28 60  1  0  0  0
 28 61  1  0  0  0
 29 62  1  0  0  0
 29 63  1  0  0  0
 30 64  1  0  0  0
 30 65  1  0  0  0
 30 66  1  0  0  0
 31 32  1  0  0  0
 31 33  2  0  0  0
 32 34  1  0  0  0
 32 67  1  0  0  0
 34 35  1  0  0  0
 34 68  1  0  0  0
 34 69  1  0  0  0
 35 36  1  0  0  0
 35 37  2  0  0  0
 36 38  1  0  0  0
 38 70  1  0  0  0
 38 71  1  0  0  0
 38 72  1  0  0  0
M  CHG  1  27   1
M  END
> <s_m_entry_id>
401

> <s_m_entry_name>
pocket_pv.212

> <s_m_Source_Path>
/home/bortolaa/Project/GT/mario-master/docking/set505protein_struct_1_site_1_set505ligs_train

> <s_m_Source_File>
pocket_pv.maegz

> <i_m_Source_File_Index>
212

> <From>
www.bindingDB.org

> <BindingDB Reactant_set_id>
50553082

> <Ligand InChI>
InChI=1S/C27H34N6O5/c1-32-10-12-33(13-11-32)9-4-14-38-24-16-22-21(15-23(24)36-2)26(30-18-29-22)31-20-7-5-19(6-8-20)27(35)28-17-25(34)37-3/h5-8,15-16,18H,4,9-14,17H2,1-3H3,(H,28,35)(H,29,30,31)

> <Ligand InChI Key>
AHWBQKARTYIOQF-UHFFFAOYSA-N

> <BindingDB MonomerID>
50210694

> <BindingDB Ligand Name>
CHEMBL3975598

> <Target Name Assigned by Curator or DataSource>
Epidermal growth factor receptor

> <Target Source Organism According to Curator or DataSource>
Homo sapiens

> <Ki (nM)>


> <IC50 (nM)>
611

> <Kd (nM)>


> <EC50 (nM)>


> <kon (M-1-s-1)>


> <koff (s-1)>


> <pH>


> <Temp C>


> <Curation/DataSource>
ChEMBL

> <Article DOI>
10.1016/j.ejmech.2016.09.039

> <PubChem AID>


> <Patent Number>


> <Authors>
Zhang, HQ; Gong, FH; Ye, JQ; Zhang, C; Yue, XH; Li, CG; Xu, YG; Sun, LP

> <Institution>
China Pharmaceutical University

> <Link to Ligand in BindingDB>
http://www.bindingdb.org/bind/chemsearch/marvin/MolStructure.jsp?monomerid=50210694

> <Link to Ligand-Target Pair in BindingDB>
http://www.bindingdb.org/jsp/dbsearch/PrimarySearch_ki.jsp?energyterm=kJ/mole&tag=r21&monomerid=50210694&enzyme=Epidermal+growth+factor+receptor&column=ki&startPg=0&Increment=50&submit=Search

> <Ligand HET ID in PDB>


> <PDB ID(s) for Ligand-Target Complex>


> <PubChem CID>
134152247

> <PubChem SID>
375982698

> <ChEBI ID of Ligand>


> <ChEMBL ID of Ligand>
CHEMBL3975598

> <DrugBank ID of Ligand>


> <IUPHAR_GRAC ID of Ligand>


> <KEGG ID of Ligand>


> <ZINC ID of Ligand>


> <Number of Protein Chains in Target (>
1

> <BindingDB Target Chain Sequence>
MRPSGTAGAALLALLAALCPASRALEEKKVCQGTSNKLTQLGTFEDHFLSLQRMFNNCEVVLGNLEITYVQRNYDLSFLKTIQEVAGYVLIALNTVERIPLENLQIIRGNMYYENSYALAVLSNYDANKTGLKELPMRNLQEILHGAVRFSNNPALCNVESIQWRDIVSSDFLSNMSMDFQNHLGSCQKCDPSCPNGSCWGAGEENCQKLTKIICAQQCSGRCRGKSPSDCCHNQCAAGCTGPRESDCLVCRKFRDEATCKDTCPPLMLYNPTTYQMDVNPEGKYSFGATCVKKCPRNYVVTDHGSCVRACGADSYEMEEDGVRKCKKCEGPCRKVCNGIGIGEFKDSLSINATNIKHFKNCTSISGDLHILPVAFRGDSFTHTPPLDPQELDILKTVKEITGFLLIQAWPENRTDLHAFENLEIIRGRTKQHGQFSLAVVSLNITSLGLRSLKEISDGDVIISGNKNLCYANTINWKKLFGTSGQKTKIISNRGENSCKATGQVCHALCSPEGCWGPEPRDCVSCRNVSRGRECVDKCNLLEGEPREFVENSECIQCHPECLPQAMNITCTGRGPDNCIQCAHYIDGPHCVKTCPAGVMGENNTLVWKYADAGHVCHLCHPNCTYGCTGPGLEGCPTNGPKIPSIATGMVGALLLLLVVALGIGLFMRRRHIVRKRTLRRLLQERELVEPLTPSGEAPNQALLRILKETEFKKIKVLGSGAFGTVYKGLWIPEGEKVKIPVAIKELREATSPKANKEILDEAYVMASVDNPHVCRLLGICLTSTVQLITQLMPFGCLLDYVREHKDNIGSQYLLNWCVQIAKGMNYLEDRRLVHRDLAARNVLVKTPQHVKITDFGLAKLLGAEEKEYHAEGGKVPIKWMALESILHRIYTHQSDVWSYGVTVWELMTFGSKPYDGIPASEISSILEKGERLPQPPICTIDVYMIMVKCWMIDADSRPKFRELIIEFSKMARDPQRYLVIQGDERMHLPSPTDSNFYRALMDEEDMDDVVDADEYLIPQQGFFSSPSTSRTPLLSSLSATSNNSTVACIDRNGLQSCPIKEDSFLQRYSSDPTGALTEDSIDDTFLPVPEYINQSVPKRPAGSVQNPVYHNQPLNPAPSRDPHYQDPHSTAVGNPEYLNTVQPTCVNSTFDSPAHWAQKGSHQISLDNPDYQQDFFPKEAKPNGIFKGSTAENAEYLRVAPQSSEFIGA

> <PDB ID(s) of Target Chain>
1IVO,1M14,1M17,1MOX,1XKK,1Z9I,2GS2,2GS6,2ITW,2ITX,2ITY,2J5E,2J5F,2J6M,2RF9,2RGP,3B2V,3BEL,3GOP,3POZ,3QWQ,3VJO,3W2O,3W2P,3W2Q,3W2R,3W2S,3W32,3W33,4G5J,4I23,4JQ7,4JQ8,4JR3,4JRV,4KRO,4LI5,4RJ4,4RJ5,4RJ6,4RJ7,4RJ8,4TKS,4UIP,4UV7,4WKQ,4WRG,4ZAU,5C8K,5C8M,5C8N,5CAL,5CAN,5CAO,5CAP,5CAQ,5CAS,5CAU,5CAV,5EDP,5EDQ,5EDR,5EM5,5EM6,5EM7,5EM8,5FED,5GNK,5HCX,5HCY,5HCZ,5HIB,5HIC,5UGB,5WB7,5WB8,5Y25,6S89,6S8A

> <UniProt (SwissProt) Recommended Name of Target Chain>
Epidermal growth factor receptor

> <UniProt (SwissProt) Entry Name of Target Chain>
EGFR_HUMAN

> <UniProt (SwissProt) Primary ID of Target Chain>
P00533

> <UniProt (SwissProt) Secondary ID(s) of Target Chain>
O00688,O00732,P06268,Q14225,Q68GS5,Q92795,Q9BZS2,Q9GZX1,Q9H2C9,Q9H3C9,Q9UMD7,Q9UMD8,Q9UMG5

> <UniProt (SwissProt) Alternative ID(s) of Target Chain>


> <UniProt (TrEMBL) Submitted Name of Target Chain>


> <UniProt (TrEMBL) Entry Name of Target Chain>


> <UniProt (TrEMBL) Primary ID of Target Chain>


> <UniProt (TrEMBL) Secondary ID(s) of Target Chain>


> <UniProt (TrEMBL) Alternative ID(s) of Target Chain>


> <training label>
6.21396

> <i_lp_mmshare_version>
54117

> <s_epik_input>
W0NIMl0xW0NIMl1OKFtDSDNdKVtDSDJdW0NIMl1OMVtDSDJdW0NIMl1bQ0gyXU9jKGMoW2NIXTIpT1tDSDNdKVtjSF1jKGMyMyluW2NIXW5jM1tOSF1jNFtjSF1bY0hdYyhbY0hdW2NIXTQpQyg9TylbTkhdW0NIMl1DKD1PKU9bQ0gzXQ==

> <s_epik_cmdline>
J2VwaWtfcHl0aG9uJywgJy1waHQnLCAnMC4xJywgJy1waCcsICc3LjQnLCAnLXRuJywgJzgnLCAnLW1hJywgJzIwMCcsICctaW1hZScsICc8aW5maWxlLm1hZT4nLCAnLW9tYWUnLCAnPG91dGZpbGUubWFlPic=

> <r_lp_tautomer_probability>
0.999978000241998

> <r_epik_Ionization_Penalty>
  0.0669

> <r_epik_Ionization_Penalty_Charging>
  0.0659

> <r_epik_Ionization_Penalty_Neutral>
  0.0010

> <r_epik_State_Penalty>
  0.1437

> <r_epik_Charging_Adjusted_Penalty>
0.209599309145144

> <i_epik_Tot_Q>
1

> <i_epik_Tot_abs_Q>
1

> <i_f3d_flags>
0

> <s_lp_Force_Field>
OPLS_2005

> <r_lp_Energy>
37.679192

> <b_lp_Chiralities_Consistent>
1

> <s_lp_Variant>
/home/bortolaa/Project/GT/mario-master/ligands/set505ligs_train.sdf:83-1

> <s_i_glide_gridfile>
struct_1_site_1

> <i_i_glide_lignum>
98

> <i_i_glide_rotatable_bonds>
13

> <r_i_docking_score>
-6.677892463032

> <r_i_glide_ligand_efficiency>
-0.175734012185053

> <r_i_glide_ligand_efficiency_sa>
-0.590813426387878

> <r_i_glide_ligand_efficiency_ln>
-1.43995005872322

> <r_i_glide_gscore>
-6.821592463032

> <r_i_glide_lipo>
-2.41943448084151

> <r_i_glide_hbond>
-0.230150106076954

> <r_i_glide_metal>
0

> <r_i_glide_rewards>
-0.741007710506622

> <r_i_glide_evdw>
-52.0444221496582

> <r_i_glide_ecoul>
-10.3609714508057

> <r_i_glide_erotb>
0.825366659496852

> <r_i_glide_esite>
-0.1

> <r_i_glide_emodel>
-46.3218426344311

> <r_i_glide_energy>
-62.4053936004639

> <r_i_glide_einternal>
10.3065500259399

> <i_i_glide_confnum>
83

> <i_i_glide_posenum>
212

> <r_i_glide_eff_state_penalty>
0.1437

> <PMID>
27688180

> <s_epik_Chemistry_Notes>
This compound has an ester and may undergo hydrolysis at high or low pH.

> <r_glide_shape_similarity>
0.589038252830505

> <s_m_subgroup_title>
505 training

> <s_m_subgroupid>
pocket_pv

> <b_m_subgroup_collapsed>
0

$$$$
/home/bortolaa/Project/GT/mario-master/ligands/set505ligs_train.sdf:75
                    3D
 Schrodinger Suite 2021-2.
 77 81  0  0  1  0            999 V2000
   13.8399   -2.3762   52.5196 C   0  0  0  0  0  0
   12.8435   -1.5484   51.9459 C   0  0  0  0  0  0
   13.2095   -0.2805   51.4256 C   0  0  0  0  0  0
   15.1792   -1.9035   52.5867 C   0  0  0  0  0  0
   15.5115   -0.6068   52.1299 C   0  0  0  0  0  0
   14.5199    0.2137   51.5396 C   0  0  0  0  0  0
   14.8077    1.4503   51.0870 N   0  0  0  0  0  0
   16.0580    1.8799   51.2354 C   0  0  0  0  0  0
   17.0612    1.1916   51.7747 N   0  0  0  0  0  0
   16.8132   -0.0631   52.2076 C   0  0  0  0  0  0
   17.8681   -0.8150   52.7525 N   0  0  0  0  0  0
   19.2225   -0.4809   52.8311 C   0  0  0  0  0  0
   19.8359    0.3341   51.8621 C   0  0  0  0  0  0
   21.1585    0.7342   52.0245 C   0  0  0  0  0  0
   21.8951    0.2796   53.1389 C   0  0  0  0  0  0
   21.3252   -0.6342   54.0573 C   0  0  0  0  0  0
   19.9845   -1.0153   53.8899 C   0  0  0  0  0  0
   23.1717    0.8412   53.2999 N   0  0  0  0  0  0
   24.2663    0.2338   53.7379 C   0  0  0  0  0  0
   25.3364    0.9520   53.3710 N   0  0  0  0  0  0
   24.2785   -0.8027   54.4043 O   0  0  0  0  0  0
   26.6724    0.5310   53.4124 C   0  0  0  0  0  0
   27.0265   -0.8317   53.2782 C   0  0  0  0  0  0
   28.3675   -1.2319   53.3747 C   0  0  0  0  0  0
   29.3473   -0.2479   53.6240 C   0  0  0  0  0  0
   29.0025    1.1219   53.6890 C   0  0  0  0  0  0
   27.6626    1.5186   53.5639 C   0  0  0  0  0  0
   13.4401   -3.6211   52.9762 O   0  0  0  0  0  0
   14.4134   -4.4907   53.5467 C   0  0  0  0  0  0
   11.5489   -2.0379   51.9121 O   0  0  0  0  0  0
   10.4486   -1.1415   51.7238 C   0  0  0  0  0  0
   10.0913   -0.3730   53.0228 C   0  0  0  0  0  0
   11.0415    0.7266   53.3643 N   0  3  0  0  0  0
   21.8303    1.7965   50.8341 Cl  0  0  0  0  0  0
   28.7238   -2.7053   53.2355 C   0  0  0  0  0  0
   11.0015    1.0807   54.8133 C   0  0  0  0  0  0
   12.1117    2.0903   55.1612 C   0  0  0  0  0  0
   11.9827    3.3721   54.3161 C   0  0  0  0  0  0
   11.9456    3.0190   52.8183 C   0  0  0  0  0  0
   10.8823    1.9387   52.5028 C   0  0  0  0  0  0
   30.7775   -0.6613   53.8196 C   0  0  0  0  0  0
   12.5100    0.3495   50.9056 H   0  0  0  0  0  0
   15.9456   -2.5235   53.0229 H   0  0  0  0  0  0
   16.2867    2.8756   50.8795 H   0  0  0  0  0  0
   17.5843   -1.6139   53.2968 H   0  0  0  0  0  0
   19.3109    0.6793   50.9870 H   0  0  0  0  0  0
   21.8738   -0.9945   54.9124 H   0  0  0  0  0  0
   19.5304   -1.6811   54.6060 H   0  0  0  0  0  0
   23.3327    1.6831   52.7645 H   0  0  0  0  0  0
   25.1871    1.8837   53.0156 H   0  0  0  0  0  0
   26.2692   -1.5840   53.1070 H   0  0  0  0  0  0
   29.7716    1.8660   53.8445 H   0  0  0  0  0  0
   27.4041    2.5664   53.6324 H   0  0  0  0  0  0
   13.9321   -5.4271   53.8321 H   0  0  0  0  0  0
   15.2044   -4.7246   52.8300 H   0  0  0  0  0  0
   14.8580   -4.0670   54.4482 H   0  0  0  0  0  0
   10.5601   -0.4968   50.8554 H   0  0  0  0  0  0
    9.5964   -1.7770   51.4768 H   0  0  0  0  0  0
    9.0835    0.0432   52.9404 H   0  0  0  0  0  0
   10.0492   -1.0958   53.8390 H   0  0  0  0  0  0
   27.8550   -3.2928   52.9373 H   0  0  0  0  0  0
   29.0895   -3.1116   54.1738 H   0  0  0  0  0  0
   29.4893   -2.8625   52.4811 H   0  0  0  0  0  0
   10.0234    1.4960   55.0655 H   0  0  0  0  0  0
   11.1325    0.1825   55.4180 H   0  0  0  0  0  0
   12.0843    2.3348   56.2226 H   0  0  0  0  0  0
   13.0826    1.6326   54.9685 H   0  0  0  0  0  0
   12.8163    4.0434   54.5178 H   0  0  0  0  0  0
   11.0753    3.9140   54.5834 H   0  0  0  0  0  0
   12.9301    2.6665   52.5115 H   0  0  0  0  0  0
   11.7458    3.9188   52.2312 H   0  0  0  0  0  0
   10.9254    1.6913   51.4448 H   0  0  0  0  0  0
    9.8893    2.3345   52.6521 H   0  0  0  0  0  0
   31.4256    0.2141   53.8887 H   0  0  0  0  0  0
   30.8991   -1.2565   54.7249 H   0  0  0  0  0  0
   31.0884   -1.2661   52.9721 H   0  0  0  0  0  0
   11.9747    0.3636   53.2015 H   0  0  0  0  0  0
  1  2  2  0  0  0
  1  4  1  0  0  0
  1 28  1  0  0  0
  2  3  1  0  0  0
  2 30  1  0  0  0
  3  6  2  0  0  0
  3 42  1  0  0  0
  4  5  2  0  0  0
  4 43  1  0  0  0
  5  6  1  0  0  0
  5 10  1  0  0  0
  6  7  1  0  0  0
  7  8  2  0  0  0
  8  9  1  0  0  0
  8 44  1  0  0  0
  9 10  2  0  0  0
 10 11  1  0  0  0
 11 12  1  0  0  0
 11 45  1  0  0  0
 12 13  2  0  0  0
 12 17  1  0  0  0
 13 14  1  0  0  0
 13 46  1  0  0  0
 14 15  2  0  0  0
 14 34  1  0  0  0
 15 16  1  0  0  0
 15 18  1  0  0  0
 16 17  2  0  0  0
 16 47  1  0  0  0
 17 48  1  0  0  0
 18 19  1  0  0  0
 18 49  1  0  0  0
 19 20  1  0  0  0
 19 21  2  0  0  0
 20 22  1  0  0  0
 20 50  1  0  0  0
 22 23  2  0  0  0
 22 27  1  0  0  0
 23 24  1  0  0  0
 23 51  1  0  0  0
 24 25  2  0  0  0
 24 35  1  0  0  0
 25 26  1  0  0  0
 25 41  1  0  0  0
 26 27  2  0  0  0
 26 52  1  0  0  0
 27 53  1  0  0  0
 28 29  1  0  0  0
 29 54  1  0  0  0
 29 55  1  0  0  0
 29 56  1  0  0  0
 30 31  1  0  0  0
 31 32  1  0  0  0
 31 57  1  0  0  0
 31 58  1  0  0  0
 32 33  1  0  0  0
 32 59  1  0  0  0
 32 60  1  0  0  0
 33 36  1  0  0  0
 33 40  1  0  0  0
 33 77  1  0  0  0
 35 61  1  0  0  0
 35 62  1  0  0  0
 35 63  1  0  0  0
 36 37  1  0  0  0
 36 64  1  0  0  0
 36 65  1  0  0  0
 37 38  1  0  0  0
 37 66  1  0  0  0
 37 67  1  0  0  0
 38 39  1  0  0  0
 38 68  1  0  0  0
 38 69  1  0  0  0
 39 40  1  0  0  0
 39 70  1  0  0  0
 39 71  1  0  0  0
 40 72  1  0  0  0
 40 73  1  0  0  0
 41 74  1  0  0  0
 41 75  1  0  0  0
 41 76  1  0  0  0
M  CHG  1  33   1
M  END
> <s_m_entry_id>
402

> <s_m_entry_name>
pocket_pv.213

> <s_m_Source_Path>
/home/bortolaa/Project/GT/mario-master/docking/set505protein_struct_1_site_1_set505ligs_train

> <s_m_Source_File>
pocket_pv.maegz

> <i_m_Source_File_Index>
213

> <From>
www.bindingDB.org

> <BindingDB Reactant_set_id>
50553094

> <Ligand InChI>
InChI=1S/C31H35ClN6O3/c1-20-7-8-22(15-21(20)2)36-31(39)37-26-10-9-23(16-25(26)32)35-30-24-17-28(40-3)29(18-27(24)33-19-34-30)41-14-13-38-11-5-4-6-12-38/h7-10,15-19H,4-6,11-14H2,1-3H3,(H,33,34,35)(H2,36,37,39)

> <Ligand InChI Key>
IFXUZZCWTCUKMY-UHFFFAOYSA-N

> <BindingDB MonomerID>
50210698

> <BindingDB Ligand Name>
CHEMBL3939588

> <Target Name Assigned by Curator or DataSource>
Epidermal growth factor receptor

> <Target Source Organism According to Curator or DataSource>
Homo sapiens

> <Ki (nM)>


> <IC50 (nM)>
817

> <Kd (nM)>


> <EC50 (nM)>


> <kon (M-1-s-1)>


> <koff (s-1)>


> <pH>


> <Temp C>


> <Curation/DataSource>
ChEMBL

> <Article DOI>
10.1016/j.ejmech.2016.09.039

> <PubChem AID>


> <Patent Number>


> <Authors>
Zhang, HQ; Gong, FH; Ye, JQ; Zhang, C; Yue, XH; Li, CG; Xu, YG; Sun, LP

> <Institution>
China Pharmaceutical University

> <Link to Ligand in BindingDB>
http://www.bindingdb.org/bind/chemsearch/marvin/MolStructure.jsp?monomerid=50210698

> <Link to Ligand-Target Pair in BindingDB>
http://www.bindingdb.org/jsp/dbsearch/PrimarySearch_ki.jsp?energyterm=kJ/mole&tag=r21&monomerid=50210698&enzyme=Epidermal+growth+factor+receptor&column=ki&startPg=0&Increment=50&submit=Search

> <Ligand HET ID in PDB>


> <PDB ID(s) for Ligand-Target Complex>


> <PubChem CID>
134149229

> <PubChem SID>
375982702

> <ChEBI ID of Ligand>


> <ChEMBL ID of Ligand>
CHEMBL3939588

> <DrugBank ID of Ligand>


> <IUPHAR_GRAC ID of Ligand>


> <KEGG ID of Ligand>


> <ZINC ID of Ligand>


> <Number of Protein Chains in Target (>
1

> <BindingDB Target Chain Sequence>
MRPSGTAGAALLALLAALCPASRALEEKKVCQGTSNKLTQLGTFEDHFLSLQRMFNNCEVVLGNLEITYVQRNYDLSFLKTIQEVAGYVLIALNTVERIPLENLQIIRGNMYYENSYALAVLSNYDANKTGLKELPMRNLQEILHGAVRFSNNPALCNVESIQWRDIVSSDFLSNMSMDFQNHLGSCQKCDPSCPNGSCWGAGEENCQKLTKIICAQQCSGRCRGKSPSDCCHNQCAAGCTGPRESDCLVCRKFRDEATCKDTCPPLMLYNPTTYQMDVNPEGKYSFGATCVKKCPRNYVVTDHGSCVRACGADSYEMEEDGVRKCKKCEGPCRKVCNGIGIGEFKDSLSINATNIKHFKNCTSISGDLHILPVAFRGDSFTHTPPLDPQELDILKTVKEITGFLLIQAWPENRTDLHAFENLEIIRGRTKQHGQFSLAVVSLNITSLGLRSLKEISDGDVIISGNKNLCYANTINWKKLFGTSGQKTKIISNRGENSCKATGQVCHALCSPEGCWGPEPRDCVSCRNVSRGRECVDKCNLLEGEPREFVENSECIQCHPECLPQAMNITCTGRGPDNCIQCAHYIDGPHCVKTCPAGVMGENNTLVWKYADAGHVCHLCHPNCTYGCTGPGLEGCPTNGPKIPSIATGMVGALLLLLVVALGIGLFMRRRHIVRKRTLRRLLQERELVEPLTPSGEAPNQALLRILKETEFKKIKVLGSGAFGTVYKGLWIPEGEKVKIPVAIKELREATSPKANKEILDEAYVMASVDNPHVCRLLGICLTSTVQLITQLMPFGCLLDYVREHKDNIGSQYLLNWCVQIAKGMNYLEDRRLVHRDLAARNVLVKTPQHVKITDFGLAKLLGAEEKEYHAEGGKVPIKWMALESILHRIYTHQSDVWSYGVTVWELMTFGSKPYDGIPASEISSILEKGERLPQPPICTIDVYMIMVKCWMIDADSRPKFRELIIEFSKMARDPQRYLVIQGDERMHLPSPTDSNFYRALMDEEDMDDVVDADEYLIPQQGFFSSPSTSRTPLLSSLSATSNNSTVACIDRNGLQSCPIKEDSFLQRYSSDPTGALTEDSIDDTFLPVPEYINQSVPKRPAGSVQNPVYHNQPLNPAPSRDPHYQDPHSTAVGNPEYLNTVQPTCVNSTFDSPAHWAQKGSHQISLDNPDYQQDFFPKEAKPNGIFKGSTAENAEYLRVAPQSSEFIGA

> <PDB ID(s) of Target Chain>
1IVO,1M14,1M17,1MOX,1XKK,1Z9I,2GS2,2GS6,2ITW,2ITX,2ITY,2J5E,2J5F,2J6M,2RF9,2RGP,3B2V,3BEL,3GOP,3POZ,3QWQ,3VJO,3W2O,3W2P,3W2Q,3W2R,3W2S,3W32,3W33,4G5J,4I23,4JQ7,4JQ8,4JR3,4JRV,4KRO,4LI5,4RJ4,4RJ5,4RJ6,4RJ7,4RJ8,4TKS,4UIP,4UV7,4WKQ,4WRG,4ZAU,5C8K,5C8M,5C8N,5CAL,5CAN,5CAO,5CAP,5CAQ,5CAS,5CAU,5CAV,5EDP,5EDQ,5EDR,5EM5,5EM6,5EM7,5EM8,5FED,5GNK,5HCX,5HCY,5HCZ,5HIB,5HIC,5UGB,5WB7,5WB8,5Y25,6S89,6S8A

> <UniProt (SwissProt) Recommended Name of Target Chain>
Epidermal growth factor receptor

> <UniProt (SwissProt) Entry Name of Target Chain>
EGFR_HUMAN

> <UniProt (SwissProt) Primary ID of Target Chain>
P00533

> <UniProt (SwissProt) Secondary ID(s) of Target Chain>
O00688,O00732,P06268,Q14225,Q68GS5,Q92795,Q9BZS2,Q9GZX1,Q9H2C9,Q9H3C9,Q9UMD7,Q9UMD8,Q9UMG5

> <UniProt (SwissProt) Alternative ID(s) of Target Chain>


> <UniProt (TrEMBL) Submitted Name of Target Chain>


> <UniProt (TrEMBL) Entry Name of Target Chain>


> <UniProt (TrEMBL) Primary ID of Target Chain>


> <UniProt (TrEMBL) Secondary ID(s) of Target Chain>


> <UniProt (TrEMBL) Alternative ID(s) of Target Chain>


> <training label>
6.08778

> <i_lp_mmshare_version>
54117

> <s_epik_input>
W0NIMl0xW0NIMl1bQ0gyXVtDSDJdW0NIMl1OMVtDSDJdW0NIMl1PYyhjKFtjSF0yKU9bQ0gzXSlbY0hdYyhjMjMpbltjSF1uYzNbTkhdYzRbY0hdYyhDbCljKFtjSF1bY0hdNClbTkhdQyg9TylbTkhdYzVbY0hdYyhbQ0gzXSljKFtDSDNdKVtjSF1bY0hdNQ==

> <s_epik_cmdline>
J2VwaWtfcHl0aG9uJywgJy1waHQnLCAnMC4xJywgJy1waCcsICc3LjQnLCAnLXRuJywgJzgnLCAnLW1hJywgJzIwMCcsICctaW1hZScsICc8aW5maWxlLm1hZT4nLCAnLW9tYWUnLCAnPG91dGZpbGUubWFlPic=

> <r_lp_tautomer_probability>
0.999978000241998

> <r_epik_Ionization_Penalty>
  0.0308

> <r_epik_Ionization_Penalty_Charging>
  0.0302

> <r_epik_Ionization_Penalty_Neutral>
  0.0006

> <r_epik_State_Penalty>
  0.0249

> <r_epik_Charging_Adjusted_Penalty>
0.0551596425646843

> <i_epik_Tot_Q>
1

> <i_epik_Tot_abs_Q>
1

> <i_f3d_flags>
0

> <s_lp_Force_Field>
OPLS_2005

> <r_lp_Energy>
50.549403

> <b_lp_Chiralities_Consistent>
1

> <s_lp_Variant>
/home/bortolaa/Project/GT/mario-master/ligands/set505ligs_train.sdf:75-1

> <s_i_glide_gridfile>
struct_1_site_1

> <i_i_glide_lignum>
75

> <i_i_glide_rotatable_bonds>
11

> <r_i_docking_score>
-6.66961295379499

> <r_i_glide_ligand_efficiency>
-0.162673486677927

> <r_i_glide_ligand_efficiency_sa>
-0.560933520621641

> <r_i_glide_ligand_efficiency_ln>
-1.41498058360192

> <r_i_glide_gscore>
-6.69451295379499

> <r_i_glide_lipo>
-3.57260825642745

> <r_i_glide_hbond>
0

> <r_i_glide_metal>
0

> <r_i_glide_rewards>
-0.237625127383592

> <r_i_glide_evdw>
-50.7985649108887

> <r_i_glide_ecoul>
-5.21213388442993

> <r_i_glide_erotb>
0.470349444230197

> <r_i_glide_esite>
-0.0328806860052202

> <r_i_glide_emodel>
-32.2967781247534

> <r_i_glide_energy>
-56.0106987953186

> <r_i_glide_einternal>
8.53687763214111

> <i_i_glide_confnum>
9

> <i_i_glide_posenum>
4

> <r_i_glide_eff_state_penalty>
0.0249

> <PMID>
27688180

> <r_glide_shape_similarity>
0.512280404567719

> <s_m_subgroup_title>
505 training

> <s_m_subgroupid>
pocket_pv

> <b_m_subgroup_collapsed>
0

$$$$
/home/bortolaa/Project/GT/mario-master/ligands/set505ligs_train.sdf:20
                    3D
 Schrodinger Suite 2021-2.
 62 64  0  0  1  0            999 V2000
   22.8747   -0.4362   53.9334 C   0  0  0  0  0  0
   24.2148   -0.0102   53.7722 C   0  0  0  0  0  0
   25.1650   -0.4927   54.7139 C   0  0  0  0  0  0
   24.7714   -1.2851   55.7357 N   0  0  0  0  0  0
   23.4913   -1.6593   55.7740 C   0  0  0  0  0  0
   22.5342   -1.2745   54.9376 N   0  0  0  0  0  0
   26.5295   -0.1334   54.5635 C   0  0  0  0  0  0
   26.9622    0.6731   53.4883 C   0  0  0  0  0  0
   25.9959    1.1890   52.6038 C   0  0  0  0  0  0
   24.6350    0.8435   52.7313 C   0  0  0  0  0  0
   26.3947    2.0037   51.5797 O   0  0  0  0  0  0
   26.2565    3.3849   51.8879 C   0  0  0  0  0  0
   28.2833    0.9892   53.2680 O   0  0  0  0  0  0
   29.2361   -0.0053   53.6305 C   0  0  0  0  0  0
   21.8958    0.0270   53.0386 N   0  0  0  0  0  0
   20.5178   -0.2074   52.9772 C   0  0  0  0  0  0
   19.7761    0.5603   52.0474 C   0  0  0  0  0  0
   18.3715    0.4264   51.9643 C   0  0  0  0  0  0
   17.6966   -0.4776   52.8262 C   0  0  0  0  0  0
   18.4508   -1.2921   53.6941 C   0  0  0  0  0  0
   19.8448   -1.1674   53.7745 C   0  0  0  0  0  0
   16.2838   -0.5909   52.9631 N   0  0  0  0  0  0
   15.2951    0.1492   52.3472 C   0  0  0  0  0  0
   14.1652   -0.0465   53.0561 O   0  0  0  0  0  0
   15.3945    0.8410   51.3282 O   0  0  0  0  0  0
   12.9671    0.5921   52.6547 C   0  0  0  0  0  0
   24.8086    3.8780   51.6014 C   0  0  0  0  0  0
   24.6889    5.3683   51.6139 N   0  3  0  0  0  0
   25.1624    6.0290   50.3506 C   0  0  0  0  0  0
   23.3811    5.8703   52.1308 C   0  0  0  0  0  0
   22.1512    5.4455   51.2952 C   0  0  0  0  0  0
   25.6373    7.4814   50.5742 C   0  0  0  0  0  0
   23.1875   -2.3146   56.5738 H   0  0  0  0  0  0
   27.2475   -0.4728   55.2914 H   0  0  0  0  0  0
   23.9412    1.2111   51.9893 H   0  0  0  0  0  0
   26.5362    3.5341   52.9332 H   0  0  0  0  0  0
   26.9704    3.9304   51.2720 H   0  0  0  0  0  0
   30.1917    0.2175   53.1543 H   0  0  0  0  0  0
   29.4035   -0.0050   54.7075 H   0  0  0  0  0  0
   28.9314   -1.0041   53.3158 H   0  0  0  0  0  0
   22.2313    0.6898   52.3575 H   0  0  0  0  0  0
   20.2729    1.2786   51.4134 H   0  0  0  0  0  0
   17.8332    1.0673   51.2848 H   0  0  0  0  0  0
   17.9573   -1.9938   54.3539 H   0  0  0  0  0  0
   20.3286   -1.8282   54.4676 H   0  0  0  0  0  0
   15.9345   -1.1495   53.7353 H   0  0  0  0  0  0
   12.2033    0.4582   53.4244 H   0  0  0  0  0  0
   12.6012    0.1611   51.7146 H   0  0  0  0  0  0
   13.1189    1.6714   52.5062 H   0  0  0  0  0  0
   24.4508    3.4973   50.6446 H   0  0  0  0  0  0
   24.1518    3.4702   52.3712 H   0  0  0  0  0  0
   26.0112    5.4729   49.9569 H   0  0  0  0  0  0
   24.3961    5.9824   49.5757 H   0  0  0  0  0  0
   23.2574    5.5347   53.1614 H   0  0  0  0  0  0
   23.4312    6.9529   52.1740 H   0  0  0  0  0  0
   21.2429    5.8777   51.7188 H   0  0  0  0  0  0
   22.2178    5.7984   50.2667 H   0  0  0  0  0  0
   22.0304    4.3627   51.2778 H   0  0  0  0  0  0
   26.0877    7.8907   49.6714 H   0  0  0  0  0  0
   24.8164    8.1408   50.8491 H   0  0  0  0  0  0
   26.3870    7.5340   51.3668 H   0  0  0  0  0  0
   25.3853    5.6412   52.3308 H   0  0  0  0  0  0
  1  2  2  0  0  0
  1  6  1  0  0  0
  1 15  1  0  0  0
  2 10  1  0  0  0
  2  3  1  0  0  0
  3  4  2  0  0  0
  3  7  1  0  0  0
  4  5  1  0  0  0
  5  6  2  0  0  0
  5 33  1  0  0  0
  7  8  2  0  0  0
  7 34  1  0  0  0
  8  9  1  0  0  0
  8 13  1  0  0  0
  9 10  2  0  0  0
  9 11  1  0  0  0
 10 35  1  0  0  0
 11 12  1  0  0  0
 12 27  1  0  0  0
 12 36  1  0  0  0
 12 37  1  0  0  0
 13 14  1  0  0  0
 14 38  1  0  0  0
 14 39  1  0  0  0
 14 40  1  0  0  0
 15 16  1  0  0  0
 15 41  1  0  0  0
 16 17  2  0  0  0
 16 21  1  0  0  0
 17 18  1  0  0  0
 17 42  1  0  0  0
 18 19  2  0  0  0
 18 43  1  0  0  0
 19 20  1  0  0  0
 19 22  1  0  0  0
 20 21  2  0  0  0
 20 44  1  0  0  0
 21 45  1  0  0  0
 22 23  1  0  0  0
 22 46  1  0  0  0
 23 24  1  0  0  0
 23 25  2  0  0  0
 24 26  1  0  0  0
 26 47  1  0  0  0
 26 48  1  0  0  0
 26 49  1  0  0  0
 27 28  1  0  0  0
 27 50  1  0  0  0
 27 51  1  0  0  0
 28 29  1  0  0  0
 28 30  1  0  0  0
 28 62  1  0  0  0
 29 32  1  0  0  0
 29 52  1  0  0  0
 29 53  1  0  0  0
 30 31  1  0  0  0
 30 54  1  0  0  0
 30 55  1  0  0  0
 31 56  1  0  0  0
 31 57  1  0  0  0
 31 58  1  0  0  0
 32 59  1  0  0  0
 32 60  1  0  0  0
 32 61  1  0  0  0
M  CHG  1  28   1
M  END
> <s_m_entry_id>
403

> <s_m_entry_name>
pocket_pv.214

> <s_m_Source_Path>
/home/bortolaa/Project/GT/mario-master/docking/set505protein_struct_1_site_1_set505ligs_train

> <s_m_Source_File>
pocket_pv.maegz

> <i_m_Source_File_Index>
214

> <From>
www.bindingDB.org

> <BindingDB Reactant_set_id>
406580

> <Ligand InChI>
InChI=1S/C23H29N5O4/c1-5-28(6-2)11-12-32-21-13-18-19(14-20(21)30-3)24-15-25-22(18)26-16-7-9-17(10-8-16)27-23(29)31-4/h7-10,13-15H,5-6,11-12H2,1-4H3,(H,27,29)(H,24,25,26)

> <Ligand InChI Key>
ROMVXLKRJJOVQM-UHFFFAOYSA-N

> <BindingDB MonomerID>
233097

> <BindingDB Ligand Name>
Methyl {4-[6-(2-diethylaminoethoxy)-7-methoxyquinazolin-4-ylamino]phenyl}carbamate hydrochloride (19b)

> <Target Name Assigned by Curator or DataSource>
Epidermal growth factor receptor

> <Target Source Organism According to Curator or DataSource>
Homo sapiens

> <Ki (nM)>


> <IC50 (nM)>
11100

> <Kd (nM)>


> <EC50 (nM)>


> <kon (M-1-s-1)>


> <koff (s-1)>


> <Temp C>


> <Curation/DataSource>
Curated from the literature by BindingDB

> <Article DOI>
10.3109/14756360903169485

> <PubChem AID>


> <Patent Number>


> <Authors>
Garofalo, A; Goossens, L; Lemoine, A; Farce, A; Arlot, Y; Depreux, P

> <Institution>
Université Lille Nord de France

> <Link to Ligand in BindingDB>
http://www.bindingdb.org/bind/chemsearch/marvin/MolStructure.jsp?monomerid=233097

> <Link to Ligand-Target Pair in BindingDB>
http://www.bindingdb.org/jsp/dbsearch/PrimarySearch_ki.jsp?energyterm=kJ/mole&tag=r21&monomerid=233097&enzyme=Epidermal+growth+factor+receptor&column=ki&startPg=0&Increment=50&submit=Search

> <Ligand HET ID in PDB>


> <PDB ID(s) for Ligand-Target Complex>


> <PubChem CID>
129010596

> <PubChem SID>
340093191

> <ChEBI ID of Ligand>


> <ChEMBL ID of Ligand>


> <DrugBank ID of Ligand>


> <IUPHAR_GRAC ID of Ligand>


> <KEGG ID of Ligand>


> <ZINC ID of Ligand>


> <Number of Protein Chains in Target (>
1

> <BindingDB Target Chain Sequence>
MRPSGTAGAALLALLAALCPASRALEEKKVCQGTSNKLTQLGTFEDHFLSLQRMFNNCEVVLGNLEITYVQRNYDLSFLKTIQEVAGYVLIALNTVERIPLENLQIIRGNMYYENSYALAVLSNYDANKTGLKELPMRNLQEILHGAVRFSNNPALCNVESIQWRDIVSSDFLSNMSMDFQNHLGSCQKCDPSCPNGSCWGAGEENCQKLTKIICAQQCSGRCRGKSPSDCCHNQCAAGCTGPRESDCLVCRKFRDEATCKDTCPPLMLYNPTTYQMDVNPEGKYSFGATCVKKCPRNYVVTDHGSCVRACGADSYEMEEDGVRKCKKCEGPCRKVCNGIGIGEFKDSLSINATNIKHFKNCTSISGDLHILPVAFRGDSFTHTPPLDPQELDILKTVKEITGFLLIQAWPENRTDLHAFENLEIIRGRTKQHGQFSLAVVSLNITSLGLRSLKEISDGDVIISGNKNLCYANTINWKKLFGTSGQKTKIISNRGENSCKATGQVCHALCSPEGCWGPEPRDCVSCRNVSRGRECVDKCNLLEGEPREFVENSECIQCHPECLPQAMNITCTGRGPDNCIQCAHYIDGPHCVKTCPAGVMGENNTLVWKYADAGHVCHLCHPNCTYGCTGPGLEGCPTNGPKIPSIATGMVGALLLLLVVALGIGLFMRRRHIVRKRTLRRLLQERELVEPLTPSGEAPNQALLRILKETEFKKIKVLGSGAFGTVYKGLWIPEGEKVKIPVAIKELREATSPKANKEILDEAYVMASVDNPHVCRLLGICLTSTVQLITQLMPFGCLLDYVREHKDNIGSQYLLNWCVQIAKGMNYLEDRRLVHRDLAARNVLVKTPQHVKITDFGLAKLLGAEEKEYHAEGGKVPIKWMALESILHRIYTHQSDVWSYGVTVWELMTFGSKPYDGIPASEISSILEKGERLPQPPICTIDVYMIMVKCWMIDADSRPKFRELIIEFSKMARDPQRYLVIQGDERMHLPSPTDSNFYRALMDEEDMDDVVDADEYLIPQQGFFSSPSTSRTPLLSSLSATSNNSTVACIDRNGLQSCPIKEDSFLQRYSSDPTGALTEDSIDDTFLPVPEYINQSVPKRPAGSVQNPVYHNQPLNPAPSRDPHYQDPHSTAVGNPEYLNTVQPTCVNSTFDSPAHWAQKGSHQISLDNPDYQQDFFPKEAKPNGIFKGSTAENAEYLRVAPQSSEFIGA

> <PDB ID(s) of Target Chain>
1IVO,1M14,1M17,1MOX,1XKK,1Z9I,2GS2,2GS6,2ITW,2ITX,2ITY,2J5E,2J5F,2J6M,2RF9,2RGP,3B2V,3BEL,3GOP,3POZ,3QWQ,3VJO,3W2O,3W2P,3W2Q,3W2R,3W2S,3W32,3W33,4G5J,4I23,4JQ7,4JQ8,4JR3,4JRV,4KRO,4LI5,4RJ4,4RJ5,4RJ6,4RJ7,4RJ8,4TKS,4UIP,4UV7,4WKQ,4WRG,4ZAU,5C8K,5C8M,5C8N,5CAL,5CAN,5CAO,5CAP,5CAQ,5CAS,5CAU,5CAV,5EDP,5EDQ,5EDR,5EM5,5EM6,5EM7,5EM8,5FED,5GNK,5HCX,5HCY,5HCZ,5HIB,5HIC,5UGB,5WB7,5WB8,5Y25,6S89,6S8A

> <UniProt (SwissProt) Recommended Name of Target Chain>
Epidermal growth factor receptor

> <UniProt (SwissProt) Entry Name of Target Chain>
EGFR_HUMAN

> <UniProt (SwissProt) Primary ID of Target Chain>
P00533

> <UniProt (SwissProt) Secondary ID(s) of Target Chain>
O00688,O00732,P06268,Q14225,Q68GS5,Q92795,Q9BZS2,Q9GZX1,Q9H2C9,Q9H3C9,Q9UMD7,Q9UMD8,Q9UMG5

> <UniProt (SwissProt) Alternative ID(s) of Target Chain>


> <UniProt (TrEMBL) Submitted Name of Target Chain>


> <UniProt (TrEMBL) Entry Name of Target Chain>


> <UniProt (TrEMBL) Primary ID of Target Chain>


> <UniProt (TrEMBL) Secondary ID(s) of Target Chain>


> <UniProt (TrEMBL) Alternative ID(s) of Target Chain>


> <training label>
4.95468

> <i_lp_mmshare_version>
54117

> <s_epik_input>
W0NIM11PQyg9TylbTkhdYyhbY0hdW2NIXTEpW2NIXVtjSF1jMVtOSF1jMm5bY0hdbmMoYzIzKVtjSF1jKE9bQ0gzXSljKFtjSF0zKU9bQ0gyXVtDSDJdTihbQ0gyXVtDSDNdKVtDSDJdW0NIM10=

> <s_epik_cmdline>
J2VwaWtfcHl0aG9uJywgJy1waHQnLCAnMC4xJywgJy1waCcsICc3LjQnLCAnLXRuJywgJzgnLCAnLW1hJywgJzIwMCcsICctaW1hZScsICc8aW5maWxlLm1hZT4nLCAnLW9tYWUnLCAnPG91dGZpbGUubWFlPic=

> <r_lp_tautomer_probability>
0.999978000241998

> <r_epik_Ionization_Penalty>
  0.0608

> <r_epik_Ionization_Penalty_Charging>
  0.0604

> <r_epik_Ionization_Penalty_Neutral>
  0.0004

> <r_epik_State_Penalty>
  0.0524

> <r_epik_Charging_Adjusted_Penalty>
0.112841773912698

> <i_epik_Tot_Q>
1

> <i_epik_Tot_abs_Q>
1

> <i_f3d_flags>
0

> <s_lp_Force_Field>
OPLS_2005

> <r_lp_Energy>
37.887198

> <b_lp_Chiralities_Consistent>
1

> <s_lp_Variant>
/home/bortolaa/Project/GT/mario-master/ligands/set505ligs_train.sdf:20-1

> <s_i_glide_gridfile>
struct_1_site_1

> <i_i_glide_lignum>
20

> <i_i_glide_rotatable_bonds>
12

> <r_i_docking_score>
-6.63438337958887

> <r_i_glide_ligand_efficiency>
-0.207324480612152

> <r_i_glide_ligand_efficiency_sa>
-0.658214196484583

> <r_i_glide_ligand_efficiency_ln>
-1.48561928515064

> <r_i_glide_gscore>
-6.68678337958887

> <r_i_glide_lipo>
-2.51675106466198

> <r_i_glide_hbond>
-0.361938921189317

> <r_i_glide_metal>
0

> <r_i_glide_rewards>
-0.77731429664517

> <r_i_glide_evdw>
-44.7054672241211

> <r_i_glide_ecoul>
-10.1244716644287

> <r_i_glide_erotb>
0.823165013777964

> <r_i_glide_esite>
-0.1

> <r_i_glide_emodel>
-38.6773203753615

> <r_i_glide_energy>
-54.8299388885498

> <r_i_glide_einternal>
12.7051553726196

> <i_i_glide_confnum>
298

> <i_i_glide_posenum>
201

> <r_i_glide_eff_state_penalty>
0.0524

> <PMID>
20222760

> <s_epik_Chemistry_Notes>
This compound has an ester and may undergo hydrolysis at high or low pH.

> <r_glide_shape_similarity>
0.636048495769501

> <pH>
7.5

> <s_m_subgroup_title>
505 training

> <s_m_subgroupid>
pocket_pv

> <b_m_subgroup_collapsed>
0

$$$$
BindingDB_50444628_mol_1
                    3D
 Schrodinger Suite 2021-2.
 42 44  0  0  1  0            999 V2000
   19.2747   -0.5147   52.7788 C   0  0  0  0  0  0
   21.7756    0.1962   53.7294 C   0  0  0  0  0  0
   21.2690    0.8019   52.5526 C   0  0  0  0  0  0
   20.0006    0.4579   52.0905 C   0  0  0  0  0  0
   19.4595    1.0390   51.0124 N   0  0  0  0  0  0
   20.1893    1.9213   50.3447 C   0  0  0  0  0  0
   21.4021    2.3297   50.7103 N   0  0  0  0  0  0
   21.9464    1.7806   51.8191 C   0  0  0  0  0  0
   23.1856    2.3574   52.1790 N   0  0  0  0  0  0
   24.3683    1.7494   52.5907 C   0  0  0  0  0  0
   25.4656    2.6056   52.8633 C   0  0  0  0  0  0
   26.7067    2.0816   53.2354 C   0  0  0  0  0  0
   26.8471    0.6930   53.2752 C   0  0  0  0  0  0
   25.7811   -0.1634   53.0305 C   0  0  0  0  0  0
   24.5501    0.3600   52.6818 C   0  0  0  0  0  0
   19.5000    2.6125   48.9436 Cl  0  0  0  0  0  0
   28.2536   -0.0355   53.9504 S   0  0  0  0  0  0
   29.5992    1.1427   53.6833 C   0  0  0  0  0  0
   27.8932   -0.0989   55.3709 O   0  0  0  0  0  0
   28.5434   -1.2640   53.1984 O   0  0  0  0  0  0
   19.8817   -1.2908   53.7739 C   0  0  0  0  0  0
   21.1653   -0.9423   54.2497 C   0  0  0  0  0  0
   21.7518   -1.7335   55.2203 O   0  0  0  0  0  0
   23.1661   -1.7016   55.3127 C   0  0  0  0  0  0
   19.3108   -2.4545   54.2437 O   0  0  0  0  0  0
   18.0668   -2.8515   53.6919 C   0  0  0  0  0  0
   18.2971   -0.7373   52.4012 H   0  0  0  0  0  0
   22.6699    0.5765   54.1817 H   0  0  0  0  0  0
   23.3209    3.2494   51.7498 H   0  0  0  0  0  0
   25.3520    3.6792   52.8013 H   0  0  0  0  0  0
   27.5315    2.7491   53.4595 H   0  0  0  0  0  0
   25.9091   -1.2350   53.1301 H   0  0  0  0  0  0
   23.7602   -0.3410   52.4767 H   0  0  0  0  0  0
   30.5434    0.6693   53.9359 H   0  0  0  0  0  0
   29.6281    1.4561   52.6299 H   0  0  0  0  0  0
   29.4746    2.0028   54.3312 H   0  0  0  0  0  0
   23.4944   -2.3759   56.1128 H   0  0  0  0  0  0
   23.5965   -0.7212   55.4985 H   0  0  0  0  0  0
   23.5879   -2.0672   54.3730 H   0  0  0  0  0  0
   17.7077   -3.7598   54.1737 H   0  0  0  0  0  0
   17.3146   -2.0823   53.8413 H   0  0  0  0  0  0
   18.1586   -3.0639   52.6122 H   0  0  0  0  0  0
  1  4  1  0  0  0
  1 21  2  0  0  0
  1 27  1  0  0  0
  2  3  1  0  0  0
  2 22  2  0  0  0
  2 28  1  0  0  0
  3  4  1  0  0  0
  3  8  2  0  0  0
  4  5  2  0  0  0
  5  6  1  0  0  0
  6  7  2  0  0  0
  6 16  1  0  0  0
  7  8  1  0  0  0
  8  9  1  0  0  0
  9 10  1  0  0  0
  9 29  1  0  0  0
 10 11  2  0  0  0
 10 15  1  0  0  0
 11 12  1  0  0  0
 11 30  1  0  0  0
 12 13  2  0  0  0
 12 31  1  0  0  0
 13 14  1  0  0  0
 13 17  1  0  0  0
 14 15  2  0  0  0
 14 32  1  0  0  0
 15 33  1  0  0  0
 17 18  1  0  0  0
 17 19  2  0  0  0
 17 20  2  0  0  0
 18 34  1  0  0  0
 18 35  1  0  0  0
 18 36  1  0  0  0
 21 22  1  0  0  0
 21 25  1  0  0  0
 22 23  1  0  0  0
 23 24  1  0  0  0
 24 37  1  0  0  0
 24 38  1  0  0  0
 24 39  1  0  0  0
 25 26  1  0  0  0
 26 40  1  0  0  0
 26 41  1  0  0  0
 26 42  1  0  0  0
M  END
> <s_m_entry_id>
404

> <s_m_entry_name>
pocket_pv.215

> <s_m_Source_Path>
/home/bortolaa/Project/GT/mario-master/docking/set505protein_struct_1_site_1_set505ligs_train

> <s_m_Source_File>
pocket_pv.maegz

> <i_m_Source_File_Index>
215

> <From>
www.bindingDB.org

> <BindingDB Reactant_set_id>
51086568

> <Ligand InChI>
InChI=1S/C17H16ClN3O4S/c1-24-14-8-12-13(9-15(14)25-2)20-17(18)21-16(12)19-10-4-6-11(7-5-10)26(3,22)23/h4-9H,1-3H3,(H,19,20,21)

> <Ligand InChI Key>
HPMSJOFQAVARBL-UHFFFAOYSA-N

> <BindingDB MonomerID>
50444628

> <BindingDB Ligand Name>
CHEMBL3098315

> <Target Name Assigned by Curator or DataSource>
Epidermal growth factor receptor

> <Target Source Organism According to Curator or DataSource>
Homo sapiens

> <Ki (nM)>


> <IC50 (nM)>
61500

> <Kd (nM)>


> <EC50 (nM)>


> <kon (M-1-s-1)>


> <koff (s-1)>


> <pH>


> <Temp C>


> <Curation/DataSource>
ChEMBL

> <Article DOI>
10.1016/j.ejmech.2013.10.058

> <PubChem AID>


> <Patent Number>


> <Authors>
Barbosa, ML; Lima, LM; Tesch, R; Sant'Anna, CM; Totzke, F; Kubbutat, MH; Schachtele, C; Laufer, SA; Barreiro, EJ

> <Institution>
Federal University of Rio de Janeiro

> <Link to Ligand in BindingDB>
http://www.bindingdb.org/bind/chemsearch/marvin/MolStructure.jsp?monomerid=50444628

> <Link to Ligand-Target Pair in BindingDB>
http://www.bindingdb.org/jsp/dbsearch/PrimarySearch_ki.jsp?energyterm=kJ/mole&tag=r21&monomerid=50444628&enzyme=Epidermal+growth+factor+receptor&column=ki&startPg=0&Increment=50&submit=Search

> <Ligand HET ID in PDB>


> <PDB ID(s) for Ligand-Target Complex>


> <PubChem CID>
76310006

> <PubChem SID>
194942524

> <ChEBI ID of Ligand>


> <ChEMBL ID of Ligand>
CHEMBL3098315

> <DrugBank ID of Ligand>


> <IUPHAR_GRAC ID of Ligand>


> <KEGG ID of Ligand>


> <ZINC ID of Ligand>


> <Number of Protein Chains in Target (>
1

> <BindingDB Target Chain Sequence>
MRPSGTAGAALLALLAALCPASRALEEKKVCQGTSNKLTQLGTFEDHFLSLQRMFNNCEVVLGNLEITYVQRNYDLSFLKTIQEVAGYVLIALNTVERIPLENLQIIRGNMYYENSYALAVLSNYDANKTGLKELPMRNLQEILHGAVRFSNNPALCNVESIQWRDIVSSDFLSNMSMDFQNHLGSCQKCDPSCPNGSCWGAGEENCQKLTKIICAQQCSGRCRGKSPSDCCHNQCAAGCTGPRESDCLVCRKFRDEATCKDTCPPLMLYNPTTYQMDVNPEGKYSFGATCVKKCPRNYVVTDHGSCVRACGADSYEMEEDGVRKCKKCEGPCRKVCNGIGIGEFKDSLSINATNIKHFKNCTSISGDLHILPVAFRGDSFTHTPPLDPQELDILKTVKEITGFLLIQAWPENRTDLHAFENLEIIRGRTKQHGQFSLAVVSLNITSLGLRSLKEISDGDVIISGNKNLCYANTINWKKLFGTSGQKTKIISNRGENSCKATGQVCHALCSPEGCWGPEPRDCVSCRNVSRGRECVDKCNLLEGEPREFVENSECIQCHPECLPQAMNITCTGRGPDNCIQCAHYIDGPHCVKTCPAGVMGENNTLVWKYADAGHVCHLCHPNCTYGCTGPGLEGCPTNGPKIPSIATGMVGALLLLLVVALGIGLFMRRRHIVRKRTLRRLLQERELVEPLTPSGEAPNQALLRILKETEFKKIKVLGSGAFGTVYKGLWIPEGEKVKIPVAIKELREATSPKANKEILDEAYVMASVDNPHVCRLLGICLTSTVQLITQLMPFGCLLDYVREHKDNIGSQYLLNWCVQIAKGMNYLEDRRLVHRDLAARNVLVKTPQHVKITDFGLAKLLGAEEKEYHAEGGKVPIKWMALESILHRIYTHQSDVWSYGVTVWELMTFGSKPYDGIPASEISSILEKGERLPQPPICTIDVYMIMVKCWMIDADSRPKFRELIIEFSKMARDPQRYLVIQGDERMHLPSPTDSNFYRALMDEEDMDDVVDADEYLIPQQGFFSSPSTSRTPLLSSLSATSNNSTVACIDRNGLQSCPIKEDSFLQRYSSDPTGALTEDSIDDTFLPVPEYINQSVPKRPAGSVQNPVYHNQPLNPAPSRDPHYQDPHSTAVGNPEYLNTVQPTCVNSTFDSPAHWAQKGSHQISLDNPDYQQDFFPKEAKPNGIFKGSTAENAEYLRVAPQSSEFIGA

> <PDB ID(s) of Target Chain>
1IVO,1M14,1M17,1MOX,1XKK,1Z9I,2GS2,2GS6,2ITW,2ITX,2ITY,2J5E,2J5F,2J6M,2RF9,2RGP,3B2V,3BEL,3GOP,3POZ,3QWQ,3VJO,3W2O,3W2P,3W2Q,3W2R,3W2S,3W32,3W33,4G5J,4I23,4JQ7,4JQ8,4JR3,4JRV,4KRO,4LI5,4RJ4,4RJ5,4RJ6,4RJ7,4RJ8,4TKS,4UIP,4UV7,4WKQ,4WRG,4ZAU,5C8K,5C8M,5C8N,5CAL,5CAN,5CAO,5CAP,5CAQ,5CAS,5CAU,5CAV,5EDP,5EDQ,5EDR,5EM5,5EM6,5EM7,5EM8,5FED,5GNK,5HCX,5HCY,5HCZ,5HIB,5HIC,5UGB,5WB7,5WB8,5Y25,6S89,6S8A

> <UniProt (SwissProt) Recommended Name of Target Chain>
Epidermal growth factor receptor

> <UniProt (SwissProt) Entry Name of Target Chain>
EGFR_HUMAN

> <UniProt (SwissProt) Primary ID of Target Chain>
P00533

> <UniProt (SwissProt) Secondary ID(s) of Target Chain>
O00688,O00732,P06268,Q14225,Q68GS5,Q92795,Q9BZS2,Q9GZX1,Q9H2C9,Q9H3C9,Q9UMD7,Q9UMD8,Q9UMG5

> <UniProt (SwissProt) Alternative ID(s) of Target Chain>


> <UniProt (TrEMBL) Submitted Name of Target Chain>


> <UniProt (TrEMBL) Entry Name of Target Chain>


> <UniProt (TrEMBL) Primary ID of Target Chain>


> <UniProt (TrEMBL) Secondary ID(s) of Target Chain>


> <UniProt (TrEMBL) Alternative ID(s) of Target Chain>


> <training label>
4.21112

> <i_lp_mmshare_version>
54117

> <s_epik_input>
W0NIM11PYyhbY0hdMSljKE9bQ0gzXSlbY0hdYyhjMTIpbmMoQ2wpbmMyW05IXWMzW2NIXVtjSF1jKFtjSF1bY0hdMylTKD1PKSg9TylbQ0gzXQ==

> <s_epik_cmdline>
J2VwaWtfcHl0aG9uJywgJy1waHQnLCAnMC4xJywgJy1waCcsICc3LjQnLCAnLXRuJywgJzgnLCAnLW1hJywgJzIwMCcsICctaW1hZScsICc8aW5maWxlLm1hZT4nLCAnLW9tYWUnLCAnPG91dGZpbGUubWFlPic=

> <r_lp_tautomer_probability>
1

> <r_epik_Ionization_Penalty>
  0.0000

> <r_epik_Ionization_Penalty_Charging>
  0.0000

> <r_epik_Ionization_Penalty_Neutral>
  0.0000

> <r_epik_State_Penalty>
  0.0000

> <r_epik_Charging_Adjusted_Penalty>
0

> <i_epik_Tot_Q>
0

> <i_epik_Tot_abs_Q>
0

> <i_f3d_flags>
0

> <s_lp_Force_Field>
OPLS_2005

> <r_lp_Energy>
15.827956

> <b_lp_Chiralities_Consistent>
1

> <s_lp_Variant>
BindingDB_50444628_mol_1-1

> <s_i_glide_gridfile>
struct_1_site_1

> <i_i_glide_lignum>
2

> <i_i_glide_rotatable_bonds>
5

> <r_i_docking_score>
-6.61570792856895

> <r_i_glide_ligand_efficiency>
-0.25445030494496

> <r_i_glide_ligand_efficiency_sa>
-0.75380802718584

> <r_i_glide_ligand_efficiency_ln>
-1.55367729911613

> <r_i_glide_gscore>
-6.61570792856895

> <r_i_glide_lipo>
-2.52977190683907

> <r_i_glide_hbond>
-0.32

> <r_i_glide_metal>
0

> <r_i_glide_rewards>
-1.16669944389685

> <r_i_glide_evdw>
-41.4737434387207

> <r_i_glide_ecoul>
-4.9471173286438

> <r_i_glide_erotb>
0.25192972275597

> <r_i_glide_esite>
-0.0354115293563897

> <r_i_glide_emodel>
-26.5422999103047

> <r_i_glide_energy>
-46.4208607673645

> <r_i_glide_einternal>
17.0215606689453

> <i_i_glide_confnum>
3

> <i_i_glide_posenum>
299

> <r_i_glide_eff_state_penalty>
0

> <PMID>
24269511

> <r_glide_shape_similarity>
0.702028691768646

> <s_m_subgroup_title>
505 training

> <s_m_subgroupid>
pocket_pv

> <b_m_subgroup_collapsed>
0

$$$$
/home/bortolaa/Project/GT/mario-master/ligands/set505ligs_train.sdf:82
                    3D
 Schrodinger Suite 2021-2.
 82 86  0  0  1  0            999 V2000
   16.9815   -0.0670   52.1954 C   0  0  0  0  0  0
   15.6316    0.3146   52.3506 C   0  0  0  0  0  0
   15.1003    1.3081   51.4850 C   0  0  0  0  0  0
   17.7417    0.5055   51.1567 C   0  0  0  0  0  0
   17.2426    1.5547   50.3427 C   0  0  0  0  0  0
   15.8855    1.9444   50.4947 C   0  0  0  0  0  0
   15.3537    2.9049   49.7062 N   0  0  0  0  0  0
   16.1519    3.4911   48.8120 C   0  0  0  0  0  0
   17.4426    3.2378   48.6098 N   0  0  0  0  0  0
   18.0082    2.2874   49.3770 C   0  0  0  0  0  0
   19.3919    2.1750   49.2007 N   0  0  0  0  0  0
   20.2657    1.8764   50.2428 C   0  0  0  0  0  0
   20.8899    0.6226   50.2564 C   0  0  0  0  0  0
   21.5169    0.1491   51.4310 C   0  0  0  0  0  0
   21.6256    0.9904   52.5620 C   0  0  0  0  0  0
   21.0266    2.2711   52.5240 C   0  0  0  0  0  0
   20.3451    2.7107   51.3741 C   0  0  0  0  0  0
   22.3536    0.6377   53.7271 N   0  0  0  0  0  0
   23.4967   -0.0569   53.7041 C   0  0  0  0  0  0
   24.5502    0.7446   53.4091 N   0  0  0  0  0  0
   23.5287   -1.2657   53.9227 O   0  0  0  0  0  0
   25.9513    0.4665   53.4122 C   0  0  0  0  0  0
   26.4867   -0.8388   53.3110 C   0  0  0  0  0  0
   27.8848   -1.0605   53.3174 C   0  0  0  0  0  0
   28.7695    0.0349   53.4267 C   0  0  0  0  0  0
   28.2398    1.3438   53.5008 C   0  0  0  0  0  0
   26.8442    1.5588   53.4849 C   0  0  0  0  0  0
   17.5279   -0.9662   53.0850 O   0  0  0  0  0  0
   18.9208   -0.8332   53.3583 C   0  0  0  0  0  0
   14.9272   -0.2922   53.3706 O   0  0  0  0  0  0
   13.5880    0.1034   53.6290 C   0  0  0  0  0  0
   12.5795   -0.5235   52.6506 C   0  0  0  0  0  0
   11.1224   -0.1149   52.9882 C   0  0  0  0  0  0
   10.3627    0.3714   51.8285 N   0  0  2  0  0  0
   10.8347    1.7125   51.4377 C   0  0  0  0  0  0
   10.0318    2.2349   50.2265 C   0  0  0  0  0  0
    8.5919    2.3335   50.5726 N   0  3  0  0  0  0
    8.0830    1.0207   51.0550 C   0  0  0  0  0  0
    8.9478    0.4933   52.2268 C   0  0  0  0  0  0
    7.7699    2.9310   49.4957 C   0  0  0  0  0  0
   28.4153   -2.4824   53.1936 C   0  0  0  0  0  0
   30.2787   -0.1936   53.4915 C   0  0  0  0  0  0
   14.0836    1.6426   51.5730 H   0  0  0  0  0  0
   18.7146    0.0992   51.0057 H   0  0  0  0  0  0
   15.7056    4.2505   48.1889 H   0  0  0  0  0  0
   19.7437    2.8414   48.5280 H   0  0  0  0  0  0
   20.7217   -0.0404   49.4200 H   0  0  0  0  0  0
   21.8947   -0.8580   51.4519 H   0  0  0  0  0  0
   21.0783    2.9288   53.3766 H   0  0  0  0  0  0
   19.8421    3.6677   51.3790 H   0  0  0  0  0  0
   22.3936    1.4136   54.3724 H   0  0  0  0  0  0
   24.3210    1.7124   53.2345 H   0  0  0  0  0  0
   25.8356   -1.6938   53.2201 H   0  0  0  0  0  0
   28.9047    2.1936   53.5785 H   0  0  0  0  0  0
   26.4689    2.5694   53.5547 H   0  0  0  0  0  0
   19.1741   -1.3171   54.2935 H   0  0  0  0  0  0
   19.5289   -1.2664   52.5783 H   0  0  0  0  0  0
   19.2043    0.2131   53.4314 H   0  0  0  0  0  0
   13.5125    1.1910   53.6630 H   0  0  0  0  0  0
   13.3326   -0.2442   54.6264 H   0  0  0  0  0  0
   12.6639   -1.6084   52.7153 H   0  0  0  0  0  0
   12.8328   -0.2833   51.6210 H   0  0  0  0  0  0
   11.0985    0.6491   53.7665 H   0  0  0  0  0  0
   10.6240   -0.9878   53.4123 H   0  0  0  0  0  0
   11.8898    1.6822   51.1719 H   0  0  0  0  0  0
   10.7452    2.4086   52.2750 H   0  0  0  0  0  0
   10.4059    3.2211   49.9399 H   0  0  0  0  0  0
   10.1581    1.5820   49.3622 H   0  0  0  0  0  0
    7.0517    1.1372   51.3867 H   0  0  0  0  0  0
    8.0839    0.2981   50.2373 H   0  0  0  0  0  0
    8.8490    1.1475   53.0952 H   0  0  0  0  0  0
    8.5767   -0.4871   52.5324 H   0  0  0  0  0  0
    7.8002    2.3198   48.5933 H   0  0  0  0  0  0
    6.7324    3.0388   49.8099 H   0  0  0  0  0  0
    8.1444    3.9246   49.2461 H   0  0  0  0  0  0
   28.7659   -2.6776   52.1834 H   0  0  0  0  0  0
   29.2305   -2.6687   53.8856 H   0  0  0  0  0  0
   27.6306   -3.2061   53.4063 H   0  0  0  0  0  0
   30.5447   -0.6374   54.4535 H   0  0  0  0  0  0
   30.6461   -0.8494   52.7037 H   0  0  0  0  0  0
   30.8409    0.7344   53.3911 H   0  0  0  0  0  0
    8.5583    2.9864   51.3625 H   0  0  0  0  0  0
  1  2  2  0  0  0
  1  4  1  0  0  0
  1 28  1  0  0  0
  2  3  1  0  0  0
  2 30  1  0  0  0
  3  6  2  0  0  0
  3 43  1  0  0  0
  4  5  2  0  0  0
  4 44  1  0  0  0
  5  6  1  0  0  0
  5 10  1  0  0  0
  6  7  1  0  0  0
  7  8  2  0  0  0
  8  9  1  0  0  0
  8 45  1  0  0  0
  9 10  2  0  0  0
 10 11  1  0  0  0
 11 12  1  0  0  0
 11 46  1  0  0  0
 12 13  2  0  0  0
 12 17  1  0  0  0
 13 14  1  0  0  0
 13 47  1  0  0  0
 14 15  2  0  0  0
 14 48  1  0  0  0
 15 16  1  0  0  0
 15 18  1  0  0  0
 16 17  2  0  0  0
 16 49  1  0  0  0
 17 50  1  0  0  0
 18 19  1  0  0  0
 18 51  1  0  0  0
 19 20  1  0  0  0
 19 21  2  0  0  0
 20 22  1  0  0  0
 20 52  1  0  0  0
 22 23  2  0  0  0
 22 27  1  0  0  0
 23 24  1  0  0  0
 23 53  1  0  0  0
 24 25  2  0  0  0
 24 41  1  0  0  0
 25 26  1  0  0  0
 25 42  1  0  0  0
 26 27  2  0  0  0
 26 54  1  0  0  0
 27 55  1  0  0  0
 28 29  1  0  0  0
 29 56  1  0  0  0
 29 57  1  0  0  0
 29 58  1  0  0  0
 30 31  1  0  0  0
 31 32  1  0  0  0
 31 59  1  0  0  0
 31 60  1  0  0  0
 32 33  1  0  0  0
 32 61  1  0  0  0
 32 62  1  0  0  0
 33 34  1  0  0  0
 33 63  1  0  0  0
 33 64  1  0  0  0
 34 35  1  0  0  0
 34 39  1  0  0  0
 35 36  1  0  0  0
 35 65  1  0  0  0
 35 66  1  0  0  0
 36 37  1  0  0  0
 36 67  1  0  0  0
 36 68  1  0  0  0
 37 38  1  0  0  0
 37 40  1  0  0  0
 37 82  1  0  0  0
 38 39  1  0  0  0
 38 69  1  0  0  0
 38 70  1  0  0  0
 39 71  1  0  0  0
 39 72  1  0  0  0
 40 73  1  0  0  0
 40 74  1  0  0  0
 40 75  1  0  0  0
 41 76  1  0  0  0
 41 77  1  0  0  0
 41 78  1  0  0  0
 42 79  1  0  0  0
 42 80  1  0  0  0
 42 81  1  0  0  0
M  CHG  1  37   1
M  END
> <s_m_entry_id>
405

> <s_m_entry_name>
pocket_pv.216

> <s_m_Source_Path>
/home/bortolaa/Project/GT/mario-master/docking/set505protein_struct_1_site_1_set505ligs_train

> <s_m_Source_File>
pocket_pv.maegz

> <i_m_Source_File_Index>
216

> <From>
www.bindingDB.org

> <BindingDB Reactant_set_id>
50553208

> <Ligand InChI>
InChI=1S/C32H39N7O3/c1-22-6-7-26(18-23(22)2)37-32(40)36-25-10-8-24(9-11-25)35-31-27-19-29(41-4)30(20-28(27)33-21-34-31)42-17-5-12-39-15-13-38(3)14-16-39/h6-11,18-21H,5,12-17H2,1-4H3,(H,33,34,35)(H2,36,37,40)

> <Ligand InChI Key>
FBAVKNCUIMNVPN-UHFFFAOYSA-N

> <BindingDB MonomerID>
50210746

> <BindingDB Ligand Name>
CHEMBL3905552

> <Target Name Assigned by Curator or DataSource>
Epidermal growth factor receptor

> <Target Source Organism According to Curator or DataSource>
Homo sapiens

> <Ki (nM)>


> <IC50 (nM)>
668

> <Kd (nM)>


> <EC50 (nM)>


> <kon (M-1-s-1)>


> <koff (s-1)>


> <pH>


> <Temp C>


> <Curation/DataSource>
ChEMBL

> <Article DOI>
10.1016/j.ejmech.2016.09.039

> <PubChem AID>


> <Patent Number>


> <Authors>
Zhang, HQ; Gong, FH; Ye, JQ; Zhang, C; Yue, XH; Li, CG; Xu, YG; Sun, LP

> <Institution>
China Pharmaceutical University

> <Link to Ligand in BindingDB>
http://www.bindingdb.org/bind/chemsearch/marvin/MolStructure.jsp?monomerid=50210746

> <Link to Ligand-Target Pair in BindingDB>
http://www.bindingdb.org/jsp/dbsearch/PrimarySearch_ki.jsp?energyterm=kJ/mole&tag=r21&monomerid=50210746&enzyme=Epidermal+growth+factor+receptor&column=ki&startPg=0&Increment=50&submit=Search

> <Ligand HET ID in PDB>


> <PDB ID(s) for Ligand-Target Complex>


> <PubChem CID>
134135362

> <PubChem SID>
375982713

> <ChEBI ID of Ligand>


> <ChEMBL ID of Ligand>
CHEMBL3905552

> <DrugBank ID of Ligand>


> <IUPHAR_GRAC ID of Ligand>


> <KEGG ID of Ligand>


> <ZINC ID of Ligand>


> <Number of Protein Chains in Target (>
1

> <BindingDB Target Chain Sequence>
MRPSGTAGAALLALLAALCPASRALEEKKVCQGTSNKLTQLGTFEDHFLSLQRMFNNCEVVLGNLEITYVQRNYDLSFLKTIQEVAGYVLIALNTVERIPLENLQIIRGNMYYENSYALAVLSNYDANKTGLKELPMRNLQEILHGAVRFSNNPALCNVESIQWRDIVSSDFLSNMSMDFQNHLGSCQKCDPSCPNGSCWGAGEENCQKLTKIICAQQCSGRCRGKSPSDCCHNQCAAGCTGPRESDCLVCRKFRDEATCKDTCPPLMLYNPTTYQMDVNPEGKYSFGATCVKKCPRNYVVTDHGSCVRACGADSYEMEEDGVRKCKKCEGPCRKVCNGIGIGEFKDSLSINATNIKHFKNCTSISGDLHILPVAFRGDSFTHTPPLDPQELDILKTVKEITGFLLIQAWPENRTDLHAFENLEIIRGRTKQHGQFSLAVVSLNITSLGLRSLKEISDGDVIISGNKNLCYANTINWKKLFGTSGQKTKIISNRGENSCKATGQVCHALCSPEGCWGPEPRDCVSCRNVSRGRECVDKCNLLEGEPREFVENSECIQCHPECLPQAMNITCTGRGPDNCIQCAHYIDGPHCVKTCPAGVMGENNTLVWKYADAGHVCHLCHPNCTYGCTGPGLEGCPTNGPKIPSIATGMVGALLLLLVVALGIGLFMRRRHIVRKRTLRRLLQERELVEPLTPSGEAPNQALLRILKETEFKKIKVLGSGAFGTVYKGLWIPEGEKVKIPVAIKELREATSPKANKEILDEAYVMASVDNPHVCRLLGICLTSTVQLITQLMPFGCLLDYVREHKDNIGSQYLLNWCVQIAKGMNYLEDRRLVHRDLAARNVLVKTPQHVKITDFGLAKLLGAEEKEYHAEGGKVPIKWMALESILHRIYTHQSDVWSYGVTVWELMTFGSKPYDGIPASEISSILEKGERLPQPPICTIDVYMIMVKCWMIDADSRPKFRELIIEFSKMARDPQRYLVIQGDERMHLPSPTDSNFYRALMDEEDMDDVVDADEYLIPQQGFFSSPSTSRTPLLSSLSATSNNSTVACIDRNGLQSCPIKEDSFLQRYSSDPTGALTEDSIDDTFLPVPEYINQSVPKRPAGSVQNPVYHNQPLNPAPSRDPHYQDPHSTAVGNPEYLNTVQPTCVNSTFDSPAHWAQKGSHQISLDNPDYQQDFFPKEAKPNGIFKGSTAENAEYLRVAPQSSEFIGA

> <PDB ID(s) of Target Chain>
1IVO,1M14,1M17,1MOX,1XKK,1Z9I,2GS2,2GS6,2ITW,2ITX,2ITY,2J5E,2J5F,2J6M,2RF9,2RGP,3B2V,3BEL,3GOP,3POZ,3QWQ,3VJO,3W2O,3W2P,3W2Q,3W2R,3W2S,3W32,3W33,4G5J,4I23,4JQ7,4JQ8,4JR3,4JRV,4KRO,4LI5,4RJ4,4RJ5,4RJ6,4RJ7,4RJ8,4TKS,4UIP,4UV7,4WKQ,4WRG,4ZAU,5C8K,5C8M,5C8N,5CAL,5CAN,5CAO,5CAP,5CAQ,5CAS,5CAU,5CAV,5EDP,5EDQ,5EDR,5EM5,5EM6,5EM7,5EM8,5FED,5GNK,5HCX,5HCY,5HCZ,5HIB,5HIC,5UGB,5WB7,5WB8,5Y25,6S89,6S8A

> <UniProt (SwissProt) Recommended Name of Target Chain>
Epidermal growth factor receptor

> <UniProt (SwissProt) Entry Name of Target Chain>
EGFR_HUMAN

> <UniProt (SwissProt) Primary ID of Target Chain>
P00533

> <UniProt (SwissProt) Secondary ID(s) of Target Chain>
O00688,O00732,P06268,Q14225,Q68GS5,Q92795,Q9BZS2,Q9GZX1,Q9H2C9,Q9H3C9,Q9UMD7,Q9UMD8,Q9UMG5

> <UniProt (SwissProt) Alternative ID(s) of Target Chain>


> <UniProt (TrEMBL) Submitted Name of Target Chain>


> <UniProt (TrEMBL) Entry Name of Target Chain>


> <UniProt (TrEMBL) Primary ID of Target Chain>


> <UniProt (TrEMBL) Secondary ID(s) of Target Chain>


> <UniProt (TrEMBL) Alternative ID(s) of Target Chain>


> <training label>
6.17522

> <i_lp_mmshare_version>
54117

> <s_epik_input>
W0NIMl0xW0NIMl1OKFtDSDNdKVtDSDJdW0NIMl1OMVtDSDJdW0NIMl1bQ0gyXU9jKGMoW2NIXTIpT1tDSDNdKVtjSF1jKGMyMyluW2NIXW5jM1tOSF1jNFtjSF1bY0hdYyhbY0hdW2NIXTQpW05IXUMoPU8pW05IXWM1W2NIXWMoW0NIM10pYyhbQ0gzXSlbY0hdW2NIXTU=

> <s_epik_cmdline>
J2VwaWtfcHl0aG9uJywgJy1waHQnLCAnMC4xJywgJy1waCcsICc3LjQnLCAnLXRuJywgJzgnLCAnLW1hJywgJzIwMCcsICctaW1hZScsICc8aW5maWxlLm1hZT4nLCAnLW9tYWUnLCAnPG91dGZpbGUubWFlPic=

> <r_lp_tautomer_probability>
0.999978000241998

> <r_epik_Ionization_Penalty>
  0.0669

> <r_epik_Ionization_Penalty_Charging>
  0.0659

> <r_epik_Ionization_Penalty_Neutral>
  0.0010

> <r_epik_State_Penalty>
  0.1437

> <r_epik_Charging_Adjusted_Penalty>
0.209599309145144

> <i_epik_Tot_Q>
1

> <i_epik_Tot_abs_Q>
1

> <i_f3d_flags>
0

> <s_lp_Force_Field>
OPLS_2005

> <r_lp_Energy>
51.757907

> <b_lp_Chiralities_Consistent>
1

> <s_lp_Variant>
/home/bortolaa/Project/GT/mario-master/ligands/set505ligs_train.sdf:82-1

> <s_i_glide_gridfile>
struct_1_site_1

> <i_i_glide_lignum>
97

> <i_i_glide_rotatable_bonds>
12

> <r_i_docking_score>
-6.60960226172048

> <r_i_glide_ligand_efficiency>
-0.157371482421916

> <r_i_glide_ligand_efficiency_sa>
-0.547027465362324

> <r_i_glide_ligand_efficiency_ln>
-1.39511675449319

> <r_i_glide_gscore>
-6.75330226172048

> <r_i_glide_lipo>
-3.23360842875926

> <r_i_glide_hbond>
-0.338762078450654

> <r_i_glide_metal>
0

> <r_i_glide_rewards>
-0.290422908022237

> <r_i_glide_evdw>
-46.8203277587891

> <r_i_glide_ecoul>
-7.08000707626343

> <r_i_glide_erotb>
0.613557862255897

> <r_i_glide_esite>
-0.101049259365257

> <r_i_glide_emodel>
-26.1011431946693

> <r_i_glide_energy>
-53.9003348350525

> <r_i_glide_einternal>
17.2953472137451

> <i_i_glide_confnum>
452

> <i_i_glide_posenum>
249

> <r_i_glide_eff_state_penalty>
0.1437

> <PMID>
27688180

> <r_glide_shape_similarity>
0.526612281799316

> <s_m_subgroup_title>
505 training

> <s_m_subgroupid>
pocket_pv

> <b_m_subgroup_collapsed>
0

$$$$
/home/bortolaa/Project/GT/mario-master/ligands/set505ligs_train.sdf:87
                    3D
 Schrodinger Suite 2021-2.
 79 83  0  0  1  0            999 V2000
   14.3981   -2.2227   52.5756 C   0  0  0  0  0  0
   13.3939   -1.2912   52.2300 C   0  0  0  0  0  0
   13.7729    0.0277   51.8804 C   0  0  0  0  0  0
   15.7561   -1.8017   52.5761 C   0  0  0  0  0  0
   16.1082   -0.4801   52.2216 C   0  0  0  0  0  0
   15.1056    0.4407   51.8439 C   0  0  0  0  0  0
   15.4069    1.6875   51.4206 N   0  0  0  0  0  0
   16.7021    2.0094   51.3755 C   0  0  0  0  0  0
   17.7085    1.2469   51.7741 N   0  0  0  0  0  0
   17.4364   -0.0041   52.2053 C   0  0  0  0  0  0
   18.4746   -0.8020   52.7137 N   0  0  0  0  0  0
   19.8095   -0.4496   52.8819 C   0  0  0  0  0  0
   20.5231   -0.9435   53.9958 C   0  0  0  0  0  0
   21.8722   -0.5744   54.1939 C   0  0  0  0  0  0
   22.4868    0.3053   53.2678 C   0  0  0  0  0  0
   21.7834    0.7677   52.1451 C   0  0  0  0  0  0
   20.4620    0.3772   51.9382 C   0  0  0  0  0  0
   23.8011    0.8011   53.3822 N   0  0  0  0  0  0
   24.8706    0.1051   53.7670 C   0  0  0  0  0  0
   25.9873    0.7017   53.3253 N   0  0  0  0  0  0
   24.8271   -0.9133   54.4569 O   0  0  0  0  0  0
   27.2993    0.1734   53.3968 C   0  0  0  0  0  0
   28.3691    1.0799   53.5712 C   0  0  0  0  0  0
   29.6745    0.5620   53.7400 C   0  0  0  0  0  0
   29.9194   -0.8247   53.6447 C   0  0  0  0  0  0
   28.8641   -1.7156   53.3766 C   0  0  0  0  0  0
   27.5521   -1.2143   53.2764 C   0  0  0  0  0  0
   13.9980   -3.5116   52.8761 O   0  0  0  0  0  0
   14.9845   -4.4375   53.3228 C   0  0  0  0  0  0
   12.0786   -1.7307   52.2082 O   0  0  0  0  0  0
   11.0342   -0.8357   51.8082 C   0  0  0  0  0  0
   11.0302   -0.5879   50.2732 C   0  0  0  0  0  0
   10.1067    0.5587   49.7936 C   0  0  0  0  0  0
   10.8260    1.8305   49.5868 N   0  0  2  0  0  0
   11.0321    2.5283   50.8680 C   0  0  0  0  0  0
   11.8649    3.8172   50.6368 C   0  0  0  0  0  0
   11.0898    4.7392   49.7727 N   0  3  0  0  0  0
   10.7273    4.0651   48.4896 C   0  0  0  0  0  0
    9.9971    2.7198   48.7571 C   0  0  0  0  0  0
   11.7330    6.0618   49.5880 C   0  0  0  0  0  0
   28.1381    2.5849   53.5906 C   0  0  0  0  0  0
   13.0619    0.7458   51.5533 H   0  0  0  0  0  0
   16.5354   -2.4934   52.8400 H   0  0  0  0  0  0
   16.9474    3.0087   51.0393 H   0  0  0  0  0  0
   18.1710   -1.6021   53.2523 H   0  0  0  0  0  0
   20.0366   -1.5864   54.7112 H   0  0  0  0  0  0
   22.3982   -0.9309   55.0677 H   0  0  0  0  0  0
   22.2603    1.4199   51.4228 H   0  0  0  0  0  0
   19.9753    0.7111   51.0383 H   0  0  0  0  0  0
   23.9793    1.6420   52.8532 H   0  0  0  0  0  0
   25.9134    1.6323   52.9457 H   0  0  0  0  0  0
   30.5111    1.2215   53.9110 H   0  0  0  0  0  0
   30.9271   -1.2035   53.7588 H   0  0  0  0  0  0
   29.0521   -2.7753   53.2895 H   0  0  0  0  0  0
   26.7483   -1.9154   53.1043 H   0  0  0  0  0  0
   14.5112   -5.3898   53.5607 H   0  0  0  0  0  0
   15.7342   -4.6231   52.5533 H   0  0  0  0  0  0
   15.4775   -4.0832   54.2272 H   0  0  0  0  0  0
   11.0820    0.0787   52.3951 H   0  0  0  0  0  0
   10.0822   -1.2945   52.0884 H   0  0  0  0  0  0
   10.6906   -1.5149   49.8072 H   0  0  0  0  0  0
   12.0303   -0.4306   49.8703 H   0  0  0  0  0  0
    9.2368    0.6823   50.4436 H   0  0  0  0  0  0
    9.7106    0.2503   48.8209 H   0  0  0  0  0  0
   11.5290    1.9373   51.6119 H   0  0  0  0  0  0
   10.0623    2.7325   51.3169 H   0  0  0  0  0  0
   12.0432    4.3044   51.6013 H   0  0  0  0  0  0
   12.8371    3.5867   50.1979 H   0  0  0  0  0  0
   10.0819    4.7231   47.9049 H   0  0  0  0  0  0
   11.6231    3.8923   47.8970 H   0  0  0  0  0  0
    9.0408    2.9134   49.2436 H   0  0  0  0  0  0
    9.7809    2.2379   47.7999 H   0  0  0  0  0  0
   12.6955    5.9668   49.0896 H   0  0  0  0  0  0
   11.0995    6.7159   48.9879 H   0  0  0  0  0  0
   11.8851    6.5422   50.5539 H   0  0  0  0  0  0
   28.9974    3.1050   54.0154 H   0  0  0  0  0  0
   27.9817    2.9595   52.5784 H   0  0  0  0  0  0
   27.2637    2.8575   54.1776 H   0  0  0  0  0  0
   10.2308    4.8655   50.3235 H   0  0  0  0  0  0
  1  2  2  0  0  0
  1  4  1  0  0  0
  1 28  1  0  0  0
  2  3  1  0  0  0
  2 30  1  0  0  0
  3  6  2  0  0  0
  3 42  1  0  0  0
  4  5  2  0  0  0
  4 43  1  0  0  0
  5  6  1  0  0  0
  5 10  1  0  0  0
  6  7  1  0  0  0
  7  8  2  0  0  0
  8  9  1  0  0  0
  8 44  1  0  0  0
  9 10  2  0  0  0
 10 11  1  0  0  0
 11 12  1  0  0  0
 11 45  1  0  0  0
 12 13  2  0  0  0
 12 17  1  0  0  0
 13 14  1  0  0  0
 13 46  1  0  0  0
 14 15  2  0  0  0
 14 47  1  0  0  0
 15 16  1  0  0  0
 15 18  1  0  0  0
 16 17  2  0  0  0
 16 48  1  0  0  0
 17 49  1  0  0  0
 18 19  1  0  0  0
 18 50  1  0  0  0
 19 20  1  0  0  0
 19 21  2  0  0  0
 20 22  1  0  0  0
 20 51  1  0  0  0
 22 23  2  0  0  0
 22 27  1  0  0  0
 23 24  1  0  0  0
 23 41  1  0  0  0
 24 25  2  0  0  0
 24 52  1  0  0  0
 25 26  1  0  0  0
 25 53  1  0  0  0
 26 27  2  0  0  0
 26 54  1  0  0  0
 27 55  1  0  0  0
 28 29  1  0  0  0
 29 56  1  0  0  0
 29 57  1  0  0  0
 29 58  1  0  0  0
 30 31  1  0  0  0
 31 32  1  0  0  0
 31 59  1  0  0  0
 31 60  1  0  0  0
 32 33  1  0  0  0
 32 61  1  0  0  0
 32 62  1  0  0  0
 33 34  1  0  0  0
 33 63  1  0  0  0
 33 64  1  0  0  0
 34 35  1  0  0  0
 34 39  1  0  0  0
 35 36  1  0  0  0
 35 65  1  0  0  0
 35 66  1  0  0  0
 36 37  1  0  0  0
 36 67  1  0  0  0
 36 68  1  0  0  0
 37 38  1  0  0  0
 37 40  1  0  0  0
 37 79  1  0  0  0
 38 39  1  0  0  0
 38 69  1  0  0  0
 38 70  1  0  0  0
 39 71  1  0  0  0
 39 72  1  0  0  0
 40 73  1  0  0  0
 40 74  1  0  0  0
 40 75  1  0  0  0
 41 76  1  0  0  0
 41 77  1  0  0  0
 41 78  1  0  0  0
M  CHG  1  37   1
M  END
> <s_m_entry_id>
406

> <s_m_entry_name>
pocket_pv.217

> <s_m_Source_Path>
/home/bortolaa/Project/GT/mario-master/docking/set505protein_struct_1_site_1_set505ligs_train

> <s_m_Source_File>
pocket_pv.maegz

> <i_m_Source_File_Index>
217

> <From>
www.bindingDB.org

> <BindingDB Reactant_set_id>
50553098

> <Ligand InChI>
InChI=1S/C31H37N7O3/c1-22-7-4-5-8-26(22)36-31(39)35-24-11-9-23(10-12-24)34-30-25-19-28(40-3)29(20-27(25)32-21-33-30)41-18-6-13-38-16-14-37(2)15-17-38/h4-5,7-12,19-21H,6,13-18H2,1-3H3,(H,32,33,34)(H2,35,36,39)

> <Ligand InChI Key>
KBRSAVVLRQLAOA-UHFFFAOYSA-N

> <BindingDB MonomerID>
50210706

> <BindingDB Ligand Name>
CHEMBL3933568

> <Target Name Assigned by Curator or DataSource>
Epidermal growth factor receptor

> <Target Source Organism According to Curator or DataSource>
Homo sapiens

> <Ki (nM)>


> <IC50 (nM)>
502

> <Kd (nM)>


> <EC50 (nM)>


> <kon (M-1-s-1)>


> <koff (s-1)>


> <pH>


> <Temp C>


> <Curation/DataSource>
ChEMBL

> <Article DOI>
10.1016/j.ejmech.2016.09.039

> <PubChem AID>


> <Patent Number>


> <Authors>
Zhang, HQ; Gong, FH; Ye, JQ; Zhang, C; Yue, XH; Li, CG; Xu, YG; Sun, LP

> <Institution>
China Pharmaceutical University

> <Link to Ligand in BindingDB>
http://www.bindingdb.org/bind/chemsearch/marvin/MolStructure.jsp?monomerid=50210706

> <Link to Ligand-Target Pair in BindingDB>
http://www.bindingdb.org/jsp/dbsearch/PrimarySearch_ki.jsp?energyterm=kJ/mole&tag=r21&monomerid=50210706&enzyme=Epidermal+growth+factor+receptor&column=ki&startPg=0&Increment=50&submit=Search

> <Ligand HET ID in PDB>


> <PDB ID(s) for Ligand-Target Complex>


> <PubChem CID>
134137837

> <PubChem SID>
375982710

> <ChEBI ID of Ligand>


> <ChEMBL ID of Ligand>
CHEMBL3933568

> <DrugBank ID of Ligand>


> <IUPHAR_GRAC ID of Ligand>


> <KEGG ID of Ligand>


> <ZINC ID of Ligand>


> <Number of Protein Chains in Target (>
1

> <BindingDB Target Chain Sequence>
MRPSGTAGAALLALLAALCPASRALEEKKVCQGTSNKLTQLGTFEDHFLSLQRMFNNCEVVLGNLEITYVQRNYDLSFLKTIQEVAGYVLIALNTVERIPLENLQIIRGNMYYENSYALAVLSNYDANKTGLKELPMRNLQEILHGAVRFSNNPALCNVESIQWRDIVSSDFLSNMSMDFQNHLGSCQKCDPSCPNGSCWGAGEENCQKLTKIICAQQCSGRCRGKSPSDCCHNQCAAGCTGPRESDCLVCRKFRDEATCKDTCPPLMLYNPTTYQMDVNPEGKYSFGATCVKKCPRNYVVTDHGSCVRACGADSYEMEEDGVRKCKKCEGPCRKVCNGIGIGEFKDSLSINATNIKHFKNCTSISGDLHILPVAFRGDSFTHTPPLDPQELDILKTVKEITGFLLIQAWPENRTDLHAFENLEIIRGRTKQHGQFSLAVVSLNITSLGLRSLKEISDGDVIISGNKNLCYANTINWKKLFGTSGQKTKIISNRGENSCKATGQVCHALCSPEGCWGPEPRDCVSCRNVSRGRECVDKCNLLEGEPREFVENSECIQCHPECLPQAMNITCTGRGPDNCIQCAHYIDGPHCVKTCPAGVMGENNTLVWKYADAGHVCHLCHPNCTYGCTGPGLEGCPTNGPKIPSIATGMVGALLLLLVVALGIGLFMRRRHIVRKRTLRRLLQERELVEPLTPSGEAPNQALLRILKETEFKKIKVLGSGAFGTVYKGLWIPEGEKVKIPVAIKELREATSPKANKEILDEAYVMASVDNPHVCRLLGICLTSTVQLITQLMPFGCLLDYVREHKDNIGSQYLLNWCVQIAKGMNYLEDRRLVHRDLAARNVLVKTPQHVKITDFGLAKLLGAEEKEYHAEGGKVPIKWMALESILHRIYTHQSDVWSYGVTVWELMTFGSKPYDGIPASEISSILEKGERLPQPPICTIDVYMIMVKCWMIDADSRPKFRELIIEFSKMARDPQRYLVIQGDERMHLPSPTDSNFYRALMDEEDMDDVVDADEYLIPQQGFFSSPSTSRTPLLSSLSATSNNSTVACIDRNGLQSCPIKEDSFLQRYSSDPTGALTEDSIDDTFLPVPEYINQSVPKRPAGSVQNPVYHNQPLNPAPSRDPHYQDPHSTAVGNPEYLNTVQPTCVNSTFDSPAHWAQKGSHQISLDNPDYQQDFFPKEAKPNGIFKGSTAENAEYLRVAPQSSEFIGA

> <PDB ID(s) of Target Chain>
1IVO,1M14,1M17,1MOX,1XKK,1Z9I,2GS2,2GS6,2ITW,2ITX,2ITY,2J5E,2J5F,2J6M,2RF9,2RGP,3B2V,3BEL,3GOP,3POZ,3QWQ,3VJO,3W2O,3W2P,3W2Q,3W2R,3W2S,3W32,3W33,4G5J,4I23,4JQ7,4JQ8,4JR3,4JRV,4KRO,4LI5,4RJ4,4RJ5,4RJ6,4RJ7,4RJ8,4TKS,4UIP,4UV7,4WKQ,4WRG,4ZAU,5C8K,5C8M,5C8N,5CAL,5CAN,5CAO,5CAP,5CAQ,5CAS,5CAU,5CAV,5EDP,5EDQ,5EDR,5EM5,5EM6,5EM7,5EM8,5FED,5GNK,5HCX,5HCY,5HCZ,5HIB,5HIC,5UGB,5WB7,5WB8,5Y25,6S89,6S8A

> <UniProt (SwissProt) Recommended Name of Target Chain>
Epidermal growth factor receptor

> <UniProt (SwissProt) Entry Name of Target Chain>
EGFR_HUMAN

> <UniProt (SwissProt) Primary ID of Target Chain>
P00533

> <UniProt (SwissProt) Secondary ID(s) of Target Chain>
O00688,O00732,P06268,Q14225,Q68GS5,Q92795,Q9BZS2,Q9GZX1,Q9H2C9,Q9H3C9,Q9UMD7,Q9UMD8,Q9UMG5

> <UniProt (SwissProt) Alternative ID(s) of Target Chain>


> <UniProt (TrEMBL) Submitted Name of Target Chain>


> <UniProt (TrEMBL) Entry Name of Target Chain>


> <UniProt (TrEMBL) Primary ID of Target Chain>


> <UniProt (TrEMBL) Secondary ID(s) of Target Chain>


> <UniProt (TrEMBL) Alternative ID(s) of Target Chain>


> <training label>
6.2993

> <i_lp_mmshare_version>
54117

> <s_epik_input>
W0NIMl0xW0NIMl1OKFtDSDNdKVtDSDJdW0NIMl1OMVtDSDJdW0NIMl1bQ0gyXU9jKGMoW2NIXTIpT1tDSDNdKVtjSF1jKGMyMyluW2NIXW5jM1tOSF1jNFtjSF1bY0hdYyhbY0hdW2NIXTQpW05IXUMoPU8pW05IXWM1YyhbQ0gzXSlbY0hdW2NIXVtjSF1bY0hdNQ==

> <s_epik_cmdline>
J2VwaWtfcHl0aG9uJywgJy1waHQnLCAnMC4xJywgJy1waCcsICc3LjQnLCAnLXRuJywgJzgnLCAnLW1hJywgJzIwMCcsICctaW1hZScsICc8aW5maWxlLm1hZT4nLCAnLW9tYWUnLCAnPG91dGZpbGUubWFlPic=

> <r_lp_tautomer_probability>
0.999978000241998

> <r_epik_Ionization_Penalty>
  0.0669

> <r_epik_Ionization_Penalty_Charging>
  0.0659

> <r_epik_Ionization_Penalty_Neutral>
  0.0010

> <r_epik_State_Penalty>
  0.1437

> <r_epik_Charging_Adjusted_Penalty>
0.209599309145144

> <i_epik_Tot_Q>
1

> <i_epik_Tot_abs_Q>
1

> <i_f3d_flags>
0

> <s_lp_Force_Field>
OPLS_2005

> <r_lp_Energy>
55.31029

> <b_lp_Chiralities_Consistent>
1

> <s_lp_Variant>
/home/bortolaa/Project/GT/mario-master/ligands/set505ligs_train.sdf:87-1

> <s_i_glide_gridfile>
struct_1_site_1

> <i_i_glide_lignum>
102

> <i_i_glide_rotatable_bonds>
12

> <r_i_docking_score>
-6.59717607183478

> <r_i_glide_ligand_efficiency>
-0.160906733459385

> <r_i_glide_ligand_efficiency_sa>
-0.554841371721505

> <r_i_glide_ligand_efficiency_ln>
-1.39961285803517

> <r_i_glide_gscore>
-6.74087607183478

> <r_i_glide_lipo>
-3.13971736380948

> <r_i_glide_hbond>
-0.2

> <r_i_glide_metal>
0

> <r_i_glide_rewards>
-0.257865520754327

> <r_i_glide_evdw>
-47.2744941711426

> <r_i_glide_ecoul>
-8.93882179260254

> <r_i_glide_erotb>
0.661254790176543

> <r_i_glide_esite>
-0.1

> <r_i_glide_emodel>
-33.1054264759465

> <r_i_glide_energy>
-56.2133159637451

> <r_i_glide_einternal>
7.69552803039551

> <i_i_glide_confnum>
154

> <i_i_glide_posenum>
349

> <r_i_glide_eff_state_penalty>
0.1437

> <PMID>
27688180

> <r_glide_shape_similarity>
0.509992837905884

> <s_m_subgroup_title>
505 training

> <s_m_subgroupid>
pocket_pv

> <b_m_subgroup_collapsed>
0

$$$$
BindingDB_50307777_mol_1
                    3D
 Schrodinger Suite 2021-2.
 70 73  0  0  1  0            999 V2000
   26.2501    1.5880   52.5916 C   0  0  0  0  0  0
   27.2171    0.9786   53.4170 C   0  0  0  0  0  0
   26.8113    0.0063   54.3636 C   0  0  0  0  0  0
   24.8922    1.1977   52.7047 C   0  0  0  0  0  0
   24.4913    0.2363   53.6609 C   0  0  0  0  0  0
   25.4590   -0.3625   54.5050 C   0  0  0  0  0  0
   25.0842   -1.2657   55.4340 N   0  0  0  0  0  0
   23.7973   -1.6107   55.5018 C   0  0  0  0  0  0
   22.8197   -1.1212   54.7522 N   0  0  0  0  0  0
   23.1477   -0.1800   53.8423 C   0  0  0  0  0  0
   26.7104    2.5358   51.6947 O   0  0  0  0  0  0
   28.5268    1.3616   53.2310 O   0  0  0  0  0  0
   29.5007    0.8298   54.1169 C   0  0  0  0  0  0
   22.1404    0.4161   53.0762 N   0  0  0  0  0  0
   20.7858    0.1027   52.9025 C   0  0  0  0  0  0
   20.0764   -0.8710   53.6443 C   0  0  0  0  0  0
   18.7351   -1.1591   53.3389 C   0  0  0  0  0  0
   18.0559   -0.4139   52.3540 C   0  0  0  0  0  0
   18.7614    0.5683   51.6180 C   0  0  0  0  0  0
   20.1182    0.8165   51.8877 C   0  0  0  0  0  0
   25.8303    3.1071   50.7229 C   0  0  0  0  0  0
   24.8844    4.1708   51.3133 C   0  0  0  0  0  0
   23.9712    4.8388   50.2703 C   0  0  0  0  0  0
   22.9636    5.7911   50.9433 C   0  0  0  0  0  0
   22.1764    6.6576   49.9453 C   0  0  0  0  0  0
   21.0455    7.4383   50.6455 C   0  0  0  0  0  0
   20.4261    8.5433   49.7747 C   0  0  0  0  0  0
   19.0857    8.5234   49.6726 N   0  0  0  0  0  0
   21.1412    9.4201   49.2773 O   0  0  0  0  0  0
   18.4544    9.7604   49.3791 O   0  0  0  0  0  0
   17.9472   -2.4659   54.1559 Cl  0  0  0  0  0  0
   16.7252   -0.6836   52.1508 O   0  0  0  0  0  0
   15.8893    0.4252   51.8512 C   0  0  0  0  0  0
   14.5957    0.3612   52.6370 C   0  0  0  0  0  0
   14.0193   -0.8832   52.9724 C   0  0  0  0  0  0
   12.8090   -0.9369   53.6957 C   0  0  0  0  0  0
   12.1657    0.2578   54.0855 C   0  0  0  0  0  0
   12.7349    1.5040   53.7477 C   0  0  0  0  0  0
   13.9417    1.5547   53.0186 C   0  0  0  0  0  0
   12.2582   -2.1389   54.0067 F   0  0  0  0  0  0
   27.5284   -0.4656   55.0121 H   0  0  0  0  0  0
   24.1497    1.6285   52.0499 H   0  0  0  0  0  0
   23.5237   -2.3624   56.2243 H   0  0  0  0  0  0
   30.4828    1.2348   53.8727 H   0  0  0  0  0  0
   29.2805    1.1241   55.1471 H   0  0  0  0  0  0
   29.5713   -0.2573   54.0467 H   0  0  0  0  0  0
   22.4724    1.1479   52.4693 H   0  0  0  0  0  0
   20.5201   -1.4608   54.4260 H   0  0  0  0  0  0
   18.2742    1.1280   50.8331 H   0  0  0  0  0  0
   20.6391    1.5649   51.3042 H   0  0  0  0  0  0
   25.2743    2.3344   50.1966 H   0  0  0  0  0  0
   26.4609    3.5782   49.9658 H   0  0  0  0  0  0
   25.4827    4.9447   51.7744 H   0  0  0  0  0  0
   24.2781    3.7618   52.1215 H   0  0  0  0  0  0
   23.4326    4.0804   49.7030 H   0  0  0  0  0  0
   24.5857    5.3912   49.5582 H   0  0  0  0  0  0
   23.4912    6.4459   51.6381 H   0  0  0  0  0  0
   22.2715    5.2052   51.5476 H   0  0  0  0  0  0
   21.7533    6.0300   49.1610 H   0  0  0  0  0  0
   22.8685    7.3482   49.4514 H   0  0  0  0  0  0
   21.4273    7.9143   51.5486 H   0  0  0  0  0  0
   20.2781    6.7375   50.9761 H   0  0  0  0  0  0
   18.4333    7.9283   50.1790 H   0  0  0  0  0  0
   17.5329    9.5246   49.3406 H   0  0  0  0  0  0
   16.3565    1.3795   52.0897 H   0  0  0  0  0  0
   15.6639    0.4309   50.7851 H   0  0  0  0  0  0
   14.5013   -1.8031   52.6808 H   0  0  0  0  0  0
   11.2376    0.2171   54.6376 H   0  0  0  0  0  0
   12.2400    2.4191   54.0441 H   0  0  0  0  0  0
   14.3660    2.5170   52.7626 H   0  0  0  0  0  0
  1  2  2  0  0  0
  1  4  1  0  0  0
  1 11  1  0  0  0
  2  3  1  0  0  0
  2 12  1  0  0  0
  3  6  2  0  0  0
  3 41  1  0  0  0
  4  5  2  0  0  0
  4 42  1  0  0  0
  5  6  1  0  0  0
  5 10  1  0  0  0
  6  7  1  0  0  0
  7  8  2  0  0  0
  8  9  1  0  0  0
  8 43  1  0  0  0
  9 10  2  0  0  0
 10 14  1  0  0  0
 11 21  1  0  0  0
 12 13  1  0  0  0
 13 44  1  0  0  0
 13 45  1  0  0  0
 13 46  1  0  0  0
 14 15  1  0  0  0
 14 47  1  0  0  0
 15 16  1  0  0  0
 15 20  2  0  0  0
 16 17  2  0  0  0
 16 48  1  0  0  0
 17 18  1  0  0  0
 17 31  1  0  0  0
 18 19  2  0  0  0
 18 32  1  0  0  0
 19 20  1  0  0  0
 19 49  1  0  0  0
 20 50  1  0  0  0
 21 22  1  0  0  0
 21 51  1  0  0  0
 21 52  1  0  0  0
 22 23  1  0  0  0
 22 53  1  0  0  0
 22 54  1  0  0  0
 23 24  1  0  0  0
 23 55  1  0  0  0
 23 56  1  0  0  0
 24 25  1  0  0  0
 24 57  1  0  0  0
 24 58  1  0  0  0
 25 26  1  0  0  0
 25 59  1  0  0  0
 25 60  1  0  0  0
 26 27  1  0  0  0
 26 61  1  0  0  0
 26 62  1  0  0  0
 27 28  1  0  0  0
 27 29  2  0  0  0
 28 30  1  0  0  0
 28 63  1  0  0  0
 30 64  1  0  0  0
 32 33  1  0  0  0
 33 34  1  0  0  0
 33 65  1  0  0  0
 33 66  1  0  0  0
 34 35  2  0  0  0
 34 39  1  0  0  0
 35 36  1  0  0  0
 35 67  1  0  0  0
 36 37  2  0  0  0
 36 40  1  0  0  0
 37 38  1  0  0  0
 37 68  1  0  0  0
 38 39  2  0  0  0
 38 69  1  0  0  0
 39 70  1  0  0  0
M  END
> <s_m_entry_id>
407

> <s_m_entry_name>
pocket_pv.218

> <s_m_Source_Path>
/home/bortolaa/Project/GT/mario-master/docking/set505protein_struct_1_site_1_set505ligs_train

> <s_m_Source_File>
pocket_pv.maegz

> <i_m_Source_File_Index>
218

> <From>
www.bindingDB.org

> <BindingDB Reactant_set_id>
50552108

> <Ligand InChI>
InChI=1S/C29H30ClFN4O5/c1-38-26-16-24-22(15-27(26)39-12-5-3-2-4-9-28(36)35-37)29(33-18-32-24)34-21-10-11-25(23(30)14-21)40-17-19-7-6-8-20(31)13-19/h6-8,10-11,13-16,18,37H,2-5,9,12,17H2,1H3,(H,35,36)(H,32,33,34)

> <Ligand InChI Key>
OYAHQWRTIPQZIR-UHFFFAOYSA-N

> <BindingDB MonomerID>
50307777

> <BindingDB Ligand Name>
7-(4-(3-Chloro-4-(3-fluorobenzyloxy)phenylamino)-7-methoxyquinazolin-6-yloxy)-N-hydroxyheptanamide::CHEMBL598799

> <Target Name Assigned by Curator or DataSource>
Epidermal growth factor receptor

> <Target Source Organism According to Curator or DataSource>
Homo sapiens

> <Ki (nM)>


> <Kd (nM)>


> <EC50 (nM)>


> <kon (M-1-s-1)>


> <koff (s-1)>


> <pH>


> <Temp C>


> <Curation/DataSource>
ChEMBL

> <Article DOI>
10.1021/jm901453q

> <PubChem AID>


> <Patent Number>


> <Authors>
Cai, X; Zhai, HX; Wang, J; Forrester, J; Qu, H; Yin, L; Lai, CJ; Bao, R; Qian, C

> <Institution>
Curis Inc

> <Link to Ligand in BindingDB>
http://www.bindingdb.org/bind/chemsearch/marvin/MolStructure.jsp?monomerid=50307777

> <Link to Ligand-Target Pair in BindingDB>
http://www.bindingdb.org/jsp/dbsearch/PrimarySearch_ki.jsp?energyterm=kJ/mole&tag=r21&monomerid=50307777&enzyme=Epidermal+growth+factor+receptor&column=ki&startPg=0&Increment=50&submit=Search

> <Ligand HET ID in PDB>


> <PDB ID(s) for Ligand-Target Complex>


> <PubChem CID>
24945689

> <PubChem SID>
104162138

> <ChEBI ID of Ligand>


> <ChEMBL ID of Ligand>
CHEMBL598799

> <DrugBank ID of Ligand>


> <IUPHAR_GRAC ID of Ligand>


> <KEGG ID of Ligand>


> <ZINC ID of Ligand>
ZINC49762914

> <Number of Protein Chains in Target (>
1

> <BindingDB Target Chain Sequence>
MRPSGTAGAALLALLAALCPASRALEEKKVCQGTSNKLTQLGTFEDHFLSLQRMFNNCEVVLGNLEITYVQRNYDLSFLKTIQEVAGYVLIALNTVERIPLENLQIIRGNMYYENSYALAVLSNYDANKTGLKELPMRNLQEILHGAVRFSNNPALCNVESIQWRDIVSSDFLSNMSMDFQNHLGSCQKCDPSCPNGSCWGAGEENCQKLTKIICAQQCSGRCRGKSPSDCCHNQCAAGCTGPRESDCLVCRKFRDEATCKDTCPPLMLYNPTTYQMDVNPEGKYSFGATCVKKCPRNYVVTDHGSCVRACGADSYEMEEDGVRKCKKCEGPCRKVCNGIGIGEFKDSLSINATNIKHFKNCTSISGDLHILPVAFRGDSFTHTPPLDPQELDILKTVKEITGFLLIQAWPENRTDLHAFENLEIIRGRTKQHGQFSLAVVSLNITSLGLRSLKEISDGDVIISGNKNLCYANTINWKKLFGTSGQKTKIISNRGENSCKATGQVCHALCSPEGCWGPEPRDCVSCRNVSRGRECVDKCNLLEGEPREFVENSECIQCHPECLPQAMNITCTGRGPDNCIQCAHYIDGPHCVKTCPAGVMGENNTLVWKYADAGHVCHLCHPNCTYGCTGPGLEGCPTNGPKIPSIATGMVGALLLLLVVALGIGLFMRRRHIVRKRTLRRLLQERELVEPLTPSGEAPNQALLRILKETEFKKIKVLGSGAFGTVYKGLWIPEGEKVKIPVAIKELREATSPKANKEILDEAYVMASVDNPHVCRLLGICLTSTVQLITQLMPFGCLLDYVREHKDNIGSQYLLNWCVQIAKGMNYLEDRRLVHRDLAARNVLVKTPQHVKITDFGLAKLLGAEEKEYHAEGGKVPIKWMALESILHRIYTHQSDVWSYGVTVWELMTFGSKPYDGIPASEISSILEKGERLPQPPICTIDVYMIMVKCWMIDADSRPKFRELIIEFSKMARDPQRYLVIQGDERMHLPSPTDSNFYRALMDEEDMDDVVDADEYLIPQQGFFSSPSTSRTPLLSSLSATSNNSTVACIDRNGLQSCPIKEDSFLQRYSSDPTGALTEDSIDDTFLPVPEYINQSVPKRPAGSVQNPVYHNQPLNPAPSRDPHYQDPHSTAVGNPEYLNTVQPTCVNSTFDSPAHWAQKGSHQISLDNPDYQQDFFPKEAKPNGIFKGSTAENAEYLRVAPQSSEFIGA

> <PDB ID(s) of Target Chain>
1IVO,1M14,1M17,1MOX,1XKK,1Z9I,2GS2,2GS6,2ITW,2ITX,2ITY,2J5E,2J5F,2J6M,2RF9,2RGP,3B2V,3BEL,3GOP,3POZ,3QWQ,3VJO,3W2O,3W2P,3W2Q,3W2R,3W2S,3W32,3W33,4G5J,4I23,4JQ7,4JQ8,4JR3,4JRV,4KRO,4LI5,4RJ4,4RJ5,4RJ6,4RJ7,4RJ8,4TKS,4UIP,4UV7,4WKQ,4WRG,4ZAU,5C8K,5C8M,5C8N,5CAL,5CAN,5CAO,5CAP,5CAQ,5CAS,5CAU,5CAV,5EDP,5EDQ,5EDR,5EM5,5EM6,5EM7,5EM8,5FED,5GNK,5HCX,5HCY,5HCZ,5HIB,5HIC,5UGB,5WB7,5WB8,5Y25,6S89,6S8A

> <UniProt (SwissProt) Recommended Name of Target Chain>
Epidermal growth factor receptor

> <UniProt (SwissProt) Entry Name of Target Chain>
EGFR_HUMAN

> <UniProt (SwissProt) Primary ID of Target Chain>
P00533

> <UniProt (SwissProt) Secondary ID(s) of Target Chain>
O00688,O00732,P06268,Q14225,Q68GS5,Q92795,Q9BZS2,Q9GZX1,Q9H2C9,Q9H3C9,Q9UMD7,Q9UMD8,Q9UMG5

> <UniProt (SwissProt) Alternative ID(s) of Target Chain>


> <UniProt (TrEMBL) Submitted Name of Target Chain>


> <UniProt (TrEMBL) Entry Name of Target Chain>


> <UniProt (TrEMBL) Primary ID of Target Chain>


> <UniProt (TrEMBL) Secondary ID(s) of Target Chain>


> <UniProt (TrEMBL) Alternative ID(s) of Target Chain>


> <training label>
8.04096

> <i_lp_mmshare_version>
54117

> <s_epik_input>
W09IXVtOSF1DKD1PKVtDSDJdW0NIMl1bQ0gyXVtDSDJdW0NIMl1bQ0gyXU9jKFtjSF0xKWMoT1tDSDNdKVtjSF1jKGMxMiluW2NIXW5jMltOSF1jM1tjSF1jKENsKWMoW2NIXVtjSF0zKU9bQ0gyXWM0W2NIXWMoRilbY0hdW2NIXVtjSF00

> <s_epik_cmdline>
J2VwaWtfcHl0aG9uJywgJy1waHQnLCAnMC4xJywgJy1waCcsICc3LjQnLCAnLXRuJywgJzgnLCAnLW1hJywgJzIwMCcsICctaW1hZScsICc8aW5maWxlLm1hZT4nLCAnLW9tYWUnLCAnPG91dGZpbGUubWFlPic=

> <r_lp_tautomer_probability>
1

> <r_epik_Ionization_Penalty>
  0.0093

> <r_epik_Ionization_Penalty_Charging>
  0.0000

> <r_epik_Ionization_Penalty_Neutral>
  0.0093

> <r_epik_State_Penalty>
  0.0000

> <r_epik_Charging_Adjusted_Penalty>
0

> <i_epik_Tot_Q>
0

> <i_epik_Tot_abs_Q>
0

> <i_f3d_flags>
0

> <s_lp_Force_Field>
OPLS_2005

> <r_lp_Energy>
39.839259

> <b_lp_Chiralities_Consistent>
1

> <s_lp_Variant>
BindingDB_50307777_mol_1-1

> <s_i_glide_gridfile>
struct_1_site_1

> <i_i_glide_lignum>
237

> <i_i_glide_rotatable_bonds>
16

> <r_i_docking_score>
-6.535699753414

> <r_i_glide_ligand_efficiency>
-0.16339249383535

> <r_i_glide_ligand_efficiency_sa>
-0.558794467964829

> <r_i_glide_ligand_efficiency_ln>
-1.39387242034548

> <r_i_glide_gscore>
-6.535699753414

> <r_i_glide_lipo>
-3.01906946954222

> <r_i_glide_hbond>
-0.160190947917183

> <r_i_glide_metal>
0

> <r_i_glide_rewards>
-0.4457356896187

> <r_i_glide_evdw>
-51.615909576416

> <r_i_glide_ecoul>
-6.82015514373779

> <r_i_glide_erotb>
0.812153074898637

> <r_i_glide_esite>
-0.11903797085306

> <r_i_glide_emodel>
-34.4797267995757

> <r_i_glide_energy>
-58.4360647201538

> <r_i_glide_einternal>
7.68635129928589

> <i_i_glide_confnum>
541

> <i_i_glide_posenum>
13

> <r_i_glide_eff_state_penalty>
0

> <IC50 (nM)>
9.1

> <PMID>
20143778

> <s_epik_Chemistry_Notes>
This compound has a N-S or N-O group and may undergo hydrolysis at high or low pH.

> <r_glide_shape_similarity>
0.52233099937439

> <s_m_subgroup_title>
505 training

> <s_m_subgroupid>
pocket_pv

> <b_m_subgroup_collapsed>
0

$$$$
/home/bortolaa/Project/GT/mario-master/ligands/set505ligs_train.sdf:15
                    3D
 Schrodinger Suite 2021-2.
 74 77  0  0  1  0            999 V2000
   23.0567   -0.2398   53.8779 C   0  0  0  0  0  0
   24.3649    0.2770   53.7096 C   0  0  0  0  0  0
   25.3869   -0.3192   54.4848 C   0  0  0  0  0  0
   25.0888   -1.2661   55.3983 N   0  0  0  0  0  0
   23.8197   -1.6625   55.4975 C   0  0  0  0  0  0
   22.8016   -1.2151   54.7756 N   0  0  0  0  0  0
   26.7184    0.0957   54.2883 C   0  0  0  0  0  0
   27.0474    1.1151   53.3641 C   0  0  0  0  0  0
   26.0180    1.7659   52.6463 C   0  0  0  0  0  0
   24.6778    1.3328   52.8270 C   0  0  0  0  0  0
   26.3777    2.7697   51.7577 O   0  0  0  0  0  0
   25.3469    3.3472   50.9464 C   0  0  0  0  0  0
   28.3428    1.5039   53.1215 O   0  0  0  0  0  0
   29.3639    0.5797   53.4714 C   0  0  0  0  0  0
   22.0219    0.2545   53.0729 N   0  0  0  0  0  0
   20.6695   -0.0860   52.9729 C   0  0  0  0  0  0
   19.9225    0.6101   51.9966 C   0  0  0  0  0  0
   18.5353    0.3998   51.8665 C   0  0  0  0  0  0
   17.8886   -0.5178   52.7296 C   0  0  0  0  0  0
   18.6482   -1.2689   53.6443 C   0  0  0  0  0  0
   20.0228   -1.0525   53.7795 C   0  0  0  0  0  0
   16.4924   -0.7266   52.8145 N   0  0  0  0  0  0
   15.4964    0.0217   52.3294 C   0  0  0  0  0  0
   14.3971   -0.1642   53.0798 N   0  0  0  0  0  0
   15.5861    0.7577   51.3481 O   0  0  0  0  0  0
   13.0421    0.1426   52.7939 C   0  0  0  0  0  0
   12.5833    0.6170   51.5375 C   0  0  0  0  0  0
   11.2043    0.8280   51.3213 C   0  0  0  0  0  0
   10.2584    0.5633   52.3397 C   0  0  0  0  0  0
   10.7253    0.1173   53.6070 C   0  0  0  0  0  0
   12.1039   -0.0963   53.8250 C   0  0  0  0  0  0
    8.9269    0.7398   52.0199 O   0  0  0  0  0  0
    7.9449    0.4731   53.0210 C   0  0  0  0  0  0
   25.8967    4.2262   49.7958 C   0  0  0  0  0  0
   26.2889    5.6230   50.1745 N   0  3  0  0  0  0
   26.9647    6.3630   49.0638 C   0  0  0  0  0  0
   25.2156    6.4430   50.8282 C   0  0  0  0  0  0
   23.9604    6.6645   49.9573 C   0  0  0  0  0  0
   28.3487    5.7955   48.6829 C   0  0  0  0  0  0
   23.6027   -2.4590   56.1907 H   0  0  0  0  0  0
   27.4819   -0.3869   54.8760 H   0  0  0  0  0  0
   23.8759    1.8050   52.2850 H   0  0  0  0  0  0
   24.8134    2.5324   50.4565 H   0  0  0  0  0  0
   24.6140    3.8716   51.5587 H   0  0  0  0  0  0
   30.2890    0.8956   52.9991 H   0  0  0  0  0  0
   29.5329    0.5607   54.5483 H   0  0  0  0  0  0
   29.1491   -0.4307   53.1173 H   0  0  0  0  0  0
   22.3085    0.9746   52.4310 H   0  0  0  0  0  0
   20.4007    1.3372   51.3568 H   0  0  0  0  0  0
   17.9889    0.9768   51.1358 H   0  0  0  0  0  0
   18.1687   -1.9798   54.3017 H   0  0  0  0  0  0
   20.5137   -1.6338   54.5368 H   0  0  0  0  0  0
   16.2137   -1.3838   53.5295 H   0  0  0  0  0  0
   14.5317   -0.6771   53.9412 H   0  0  0  0  0  0
   13.2594    0.8086   50.7204 H   0  0  0  0  0  0
   10.8619    1.1810   50.3600 H   0  0  0  0  0  0
   10.0408   -0.0816   54.4184 H   0  0  0  0  0  0
   12.4330   -0.4565   54.7894 H   0  0  0  0  0  0
    6.9508    0.6516   52.6095 H   0  0  0  0  0  0
    8.0694    1.1309   53.8833 H   0  0  0  0  0  0
    7.9846   -0.5645   53.3525 H   0  0  0  0  0  0
   26.7423    3.6983   49.3575 H   0  0  0  0  0  0
   25.1482    4.2887   49.0052 H   0  0  0  0  0  0
   26.3162    6.3820   48.1862 H   0  0  0  0  0  0
   27.1067    7.4021   49.3647 H   0  0  0  0  0  0
   24.9230    5.9940   51.7755 H   0  0  0  0  0  0
   25.6363    7.4094   51.1106 H   0  0  0  0  0  0
   23.2406    7.2926   50.4841 H   0  0  0  0  0  0
   24.2007    7.1643   49.0190 H   0  0  0  0  0  0
   23.4569    5.7262   49.7239 H   0  0  0  0  0  0
   28.8268    6.4370   47.9428 H   0  0  0  0  0  0
   29.0108    5.7470   49.5477 H   0  0  0  0  0  0
   28.2827    4.8005   48.2424 H   0  0  0  0  0  0
   27.0018    5.5341   50.9084 H   0  0  0  0  0  0
  1  2  2  0  0  0
  1  6  1  0  0  0
  1 15  1  0  0  0
  2 10  1  0  0  0
  2  3  1  0  0  0
  3  4  2  0  0  0
  3  7  1  0  0  0
  4  5  1  0  0  0
  5  6  2  0  0  0
  5 40  1  0  0  0
  7  8  2  0  0  0
  7 41  1  0  0  0
  8  9  1  0  0  0
  8 13  1  0  0  0
  9 10  2  0  0  0
  9 11  1  0  0  0
 10 42  1  0  0  0
 11 12  1  0  0  0
 12 34  1  0  0  0
 12 43  1  0  0  0
 12 44  1  0  0  0
 13 14  1  0  0  0
 14 45  1  0  0  0
 14 46  1  0  0  0
 14 47  1  0  0  0
 15 16  1  0  0  0
 15 48  1  0  0  0
 16 17  2  0  0  0
 16 21  1  0  0  0
 17 18  1  0  0  0
 17 49  1  0  0  0
 18 19  2  0  0  0
 18 50  1  0  0  0
 19 20  1  0  0  0
 19 22  1  0  0  0
 20 21  2  0  0  0
 20 51  1  0  0  0
 21 52  1  0  0  0
 22 23  1  0  0  0
 22 53  1  0  0  0
 23 24  1  0  0  0
 23 25  2  0  0  0
 24 26  1  0  0  0
 24 54  1  0  0  0
 26 27  2  0  0  0
 26 31  1  0  0  0
 27 28  1  0  0  0
 27 55  1  0  0  0
 28 29  2  0  0  0
 28 56  1  0  0  0
 29 30  1  0  0  0
 29 32  1  0  0  0
 30 31  2  0  0  0
 30 57  1  0  0  0
 31 58  1  0  0  0
 32 33  1  0  0  0
 33 59  1  0  0  0
 33 60  1  0  0  0
 33 61  1  0  0  0
 34 35  1  0  0  0
 34 62  1  0  0  0
 34 63  1  0  0  0
 35 36  1  0  0  0
 35 37  1  0  0  0
 35 74  1  0  0  0
 36 39  1  0  0  0
 36 64  1  0  0  0
 36 65  1  0  0  0
 37 38  1  0  0  0
 37 66  1  0  0  0
 37 67  1  0  0  0
 38 68  1  0  0  0
 38 69  1  0  0  0
 38 70  1  0  0  0
 39 71  1  0  0  0
 39 72  1  0  0  0
 39 73  1  0  0  0
M  CHG  1  35   1
M  END
> <s_m_entry_id>
408

> <s_m_entry_name>
pocket_pv.219

> <s_m_Source_Path>
/home/bortolaa/Project/GT/mario-master/docking/set505protein_struct_1_site_1_set505ligs_train

> <s_m_Source_File>
pocket_pv.maegz

> <i_m_Source_File_Index>
219

> <From>
www.bindingDB.org

> <BindingDB Reactant_set_id>
406589

> <Ligand InChI>
InChI=1S/C29H34N6O4/c1-5-35(6-2)15-16-39-27-17-24-25(18-26(27)38-4)30-19-31-28(24)32-20-7-9-21(10-8-20)33-29(36)34-22-11-13-23(37-3)14-12-22/h7-14,17-19H,5-6,15-16H2,1-4H3,(H,30,31,32)(H2,33,34,36)

> <Ligand InChI Key>
HSELEVMNQQKQEM-UHFFFAOYSA-N

> <BindingDB MonomerID>
233103

> <BindingDB Ligand Name>
N-{4-[6-(2-Diethylaminoethoxy)-7-methoxy-quinazolin-4-ylamino]phenyl}-N&#39;-(4-methoxy phenyl)urea hydrochloride (19e)

> <Target Name Assigned by Curator or DataSource>
Epidermal growth factor receptor

> <Target Source Organism According to Curator or DataSource>
Homo sapiens

> <Ki (nM)>


> <IC50 (nM)>
21500

> <Kd (nM)>


> <EC50 (nM)>


> <kon (M-1-s-1)>


> <koff (s-1)>


> <Temp C>


> <Curation/DataSource>
Curated from the literature by BindingDB

> <Article DOI>
10.3109/14756360903169485

> <PubChem AID>


> <Patent Number>


> <Authors>
Garofalo, A; Goossens, L; Lemoine, A; Farce, A; Arlot, Y; Depreux, P

> <Institution>
Université Lille Nord de France

> <Link to Ligand in BindingDB>
http://www.bindingdb.org/bind/chemsearch/marvin/MolStructure.jsp?monomerid=233103

> <Link to Ligand-Target Pair in BindingDB>
http://www.bindingdb.org/jsp/dbsearch/PrimarySearch_ki.jsp?energyterm=kJ/mole&tag=r21&monomerid=233103&enzyme=Epidermal+growth+factor+receptor&column=ki&startPg=0&Increment=50&submit=Search

> <Ligand HET ID in PDB>


> <PDB ID(s) for Ligand-Target Complex>


> <PubChem CID>
129010602

> <PubChem SID>
340093197

> <ChEBI ID of Ligand>


> <ChEMBL ID of Ligand>


> <DrugBank ID of Ligand>


> <IUPHAR_GRAC ID of Ligand>


> <KEGG ID of Ligand>


> <ZINC ID of Ligand>


> <Number of Protein Chains in Target (>
1

> <BindingDB Target Chain Sequence>
MRPSGTAGAALLALLAALCPASRALEEKKVCQGTSNKLTQLGTFEDHFLSLQRMFNNCEVVLGNLEITYVQRNYDLSFLKTIQEVAGYVLIALNTVERIPLENLQIIRGNMYYENSYALAVLSNYDANKTGLKELPMRNLQEILHGAVRFSNNPALCNVESIQWRDIVSSDFLSNMSMDFQNHLGSCQKCDPSCPNGSCWGAGEENCQKLTKIICAQQCSGRCRGKSPSDCCHNQCAAGCTGPRESDCLVCRKFRDEATCKDTCPPLMLYNPTTYQMDVNPEGKYSFGATCVKKCPRNYVVTDHGSCVRACGADSYEMEEDGVRKCKKCEGPCRKVCNGIGIGEFKDSLSINATNIKHFKNCTSISGDLHILPVAFRGDSFTHTPPLDPQELDILKTVKEITGFLLIQAWPENRTDLHAFENLEIIRGRTKQHGQFSLAVVSLNITSLGLRSLKEISDGDVIISGNKNLCYANTINWKKLFGTSGQKTKIISNRGENSCKATGQVCHALCSPEGCWGPEPRDCVSCRNVSRGRECVDKCNLLEGEPREFVENSECIQCHPECLPQAMNITCTGRGPDNCIQCAHYIDGPHCVKTCPAGVMGENNTLVWKYADAGHVCHLCHPNCTYGCTGPGLEGCPTNGPKIPSIATGMVGALLLLLVVALGIGLFMRRRHIVRKRTLRRLLQERELVEPLTPSGEAPNQALLRILKETEFKKIKVLGSGAFGTVYKGLWIPEGEKVKIPVAIKELREATSPKANKEILDEAYVMASVDNPHVCRLLGICLTSTVQLITQLMPFGCLLDYVREHKDNIGSQYLLNWCVQIAKGMNYLEDRRLVHRDLAARNVLVKTPQHVKITDFGLAKLLGAEEKEYHAEGGKVPIKWMALESILHRIYTHQSDVWSYGVTVWELMTFGSKPYDGIPASEISSILEKGERLPQPPICTIDVYMIMVKCWMIDADSRPKFRELIIEFSKMARDPQRYLVIQGDERMHLPSPTDSNFYRALMDEEDMDDVVDADEYLIPQQGFFSSPSTSRTPLLSSLSATSNNSTVACIDRNGLQSCPIKEDSFLQRYSSDPTGALTEDSIDDTFLPVPEYINQSVPKRPAGSVQNPVYHNQPLNPAPSRDPHYQDPHSTAVGNPEYLNTVQPTCVNSTFDSPAHWAQKGSHQISLDNPDYQQDFFPKEAKPNGIFKGSTAENAEYLRVAPQSSEFIGA

> <PDB ID(s) of Target Chain>
1IVO,1M14,1M17,1MOX,1XKK,1Z9I,2GS2,2GS6,2ITW,2ITX,2ITY,2J5E,2J5F,2J6M,2RF9,2RGP,3B2V,3BEL,3GOP,3POZ,3QWQ,3VJO,3W2O,3W2P,3W2Q,3W2R,3W2S,3W32,3W33,4G5J,4I23,4JQ7,4JQ8,4JR3,4JRV,4KRO,4LI5,4RJ4,4RJ5,4RJ6,4RJ7,4RJ8,4TKS,4UIP,4UV7,4WKQ,4WRG,4ZAU,5C8K,5C8M,5C8N,5CAL,5CAN,5CAO,5CAP,5CAQ,5CAS,5CAU,5CAV,5EDP,5EDQ,5EDR,5EM5,5EM6,5EM7,5EM8,5FED,5GNK,5HCX,5HCY,5HCZ,5HIB,5HIC,5UGB,5WB7,5WB8,5Y25,6S89,6S8A

> <UniProt (SwissProt) Recommended Name of Target Chain>
Epidermal growth factor receptor

> <UniProt (SwissProt) Entry Name of Target Chain>
EGFR_HUMAN

> <UniProt (SwissProt) Primary ID of Target Chain>
P00533

> <UniProt (SwissProt) Secondary ID(s) of Target Chain>
O00688,O00732,P06268,Q14225,Q68GS5,Q92795,Q9BZS2,Q9GZX1,Q9H2C9,Q9H3C9,Q9UMD7,Q9UMD8,Q9UMG5

> <UniProt (SwissProt) Alternative ID(s) of Target Chain>


> <UniProt (TrEMBL) Submitted Name of Target Chain>


> <UniProt (TrEMBL) Entry Name of Target Chain>


> <UniProt (TrEMBL) Primary ID of Target Chain>


> <UniProt (TrEMBL) Secondary ID(s) of Target Chain>


> <UniProt (TrEMBL) Alternative ID(s) of Target Chain>


> <training label>
4.66756

> <i_lp_mmshare_version>
54117

> <s_epik_input>
W0NIM11bQ0gyXU4oW0NIMl1bQ0gzXSlbQ0gyXVtDSDJdT2MoW2NIXTEpYyhPW0NIM10pW2NIXWMoYzEyKW5bY0hdbmMyW05IXWMzW2NIXVtjSF1jKFtjSF1bY0hdMylbTkhdQyg9TylbTkhdYzRbY0hdW2NIXWMoW2NIXVtjSF00KU9bQ0gzXQ==

> <s_epik_cmdline>
J2VwaWtfcHl0aG9uJywgJy1waHQnLCAnMC4xJywgJy1waCcsICc3LjQnLCAnLXRuJywgJzgnLCAnLW1hJywgJzIwMCcsICctaW1hZScsICc8aW5maWxlLm1hZT4nLCAnLW9tYWUnLCAnPG91dGZpbGUubWFlPic=

> <r_lp_tautomer_probability>
0.999978000241998

> <r_epik_Ionization_Penalty>
  0.0608

> <r_epik_Ionization_Penalty_Charging>
  0.0604

> <r_epik_Ionization_Penalty_Neutral>
  0.0004

> <r_epik_State_Penalty>
  0.0524

> <r_epik_Charging_Adjusted_Penalty>
0.112841773912698

> <i_epik_Tot_Q>
1

> <i_epik_Tot_abs_Q>
1

> <i_f3d_flags>
0

> <s_lp_Force_Field>
OPLS_2005

> <r_lp_Energy>
49.783564

> <b_lp_Chiralities_Consistent>
1

> <s_lp_Variant>
/home/bortolaa/Project/GT/mario-master/ligands/set505ligs_train.sdf:15-1

> <s_i_glide_gridfile>
struct_1_site_1

> <i_i_glide_lignum>
15

> <i_i_glide_rotatable_bonds>
14

> <r_i_docking_score>
-6.52729242610301

> <r_i_glide_ligand_efficiency>
-0.16736647246418

> <r_i_glide_ligand_efficiency_sa>
-0.567575095904327

> <r_i_glide_ligand_efficiency_ln>
-1.39963678437061

> <r_i_glide_gscore>
-6.57969242610301

> <r_i_glide_lipo>
-2.31921703285479

> <r_i_glide_hbond>
-0.508427221043005

> <r_i_glide_metal>
0

> <r_i_glide_rewards>
-0.538290950457442

> <r_i_glide_evdw>
-49.0858383178711

> <r_i_glide_ecoul>
-9.26060390472412

> <r_i_glide_erotb>
0.729625279854398

> <r_i_glide_esite>
-0.1

> <r_i_glide_emodel>
-34.9605882075892

> <r_i_glide_energy>
-58.3464422225952

> <r_i_glide_einternal>
7.49137258529663

> <i_i_glide_confnum>
169

> <i_i_glide_posenum>
324

> <r_i_glide_eff_state_penalty>
0.0524

> <PMID>
20222760

> <r_glide_shape_similarity>
0.519634425640106

> <pH>
7.5

> <s_m_subgroup_title>
505 training

> <s_m_subgroupid>
pocket_pv

> <b_m_subgroup_collapsed>
0

$$$$
BindingDB_50444635_mol_1
                    3D
 Schrodinger Suite 2021-2.
 41 43  0  0  1  0            999 V2000
   19.2734   -0.5722   52.8275 C   0  0  0  0  0  0
   21.8291    0.0830   53.7238 C   0  0  0  0  0  0
   21.2922    0.7209   52.5949 C   0  0  0  0  0  0
   19.9999    0.3964   52.1416 C   0  0  0  0  0  0
   19.4618    0.9781   51.0638 N   0  0  0  0  0  0
   20.1853    1.8760   50.4113 C   0  0  0  0  0  0
   21.3891    2.2942   50.7873 N   0  0  0  0  0  0
   21.9577    1.7289   51.8696 C   0  0  0  0  0  0
   23.1793    2.3073   52.2285 N   0  0  0  0  0  0
   24.3863    1.7221   52.6379 C   0  0  0  0  0  0
   25.4318    2.5826   53.0121 C   0  0  0  0  0  0
   26.6814    2.0665   53.3593 C   0  0  0  0  0  0
   26.8762    0.6820   53.3142 C   0  0  0  0  0  0
   25.8544   -0.1896   52.9636 C   0  0  0  0  0  0
   24.6150    0.3358   52.6002 C   0  0  0  0  0  0
   19.4965    2.5811   49.0026 Cl  0  0  0  0  0  0
   28.3911   -0.0071   53.7789 S   0  0  0  0  0  0
   29.4784    1.2303   53.3778 N   0  0  0  0  0  0
   28.2875   -0.0648   55.2340 O   0  0  0  0  0  0
   28.6976   -1.2007   52.9768 O   0  0  0  0  0  0
   19.8961   -1.3471   53.8258 C   0  0  0  0  0  0
   21.1935   -1.0348   54.2602 C   0  0  0  0  0  0
   21.7754   -1.8496   55.1976 O   0  0  0  0  0  0
   23.1779   -1.7543   55.3689 C   0  0  0  0  0  0
   19.3166   -2.4625   54.3789 O   0  0  0  0  0  0
   17.9748   -2.7635   54.0342 C   0  0  0  0  0  0
   18.2824   -0.8072   52.4667 H   0  0  0  0  0  0
   22.7406    0.4403   54.1598 H   0  0  0  0  0  0
   23.3044    3.2295   51.8383 H   0  0  0  0  0  0
   25.2687    3.6468   53.0380 H   0  0  0  0  0  0
   27.4568    2.7512   53.6651 H   0  0  0  0  0  0
   26.0261   -1.2559   52.9471 H   0  0  0  0  0  0
   23.8321   -0.3401   52.3051 H   0  0  0  0  0  0
   29.3483    2.0405   53.9784 H   0  0  0  0  0  0
   30.4550    0.9272   53.4050 H   0  0  0  0  0  0
   23.5227   -2.6264   55.9268 H   0  0  0  0  0  0
   23.4545   -0.8685   55.9423 H   0  0  0  0  0  0
   23.7067   -1.7552   54.4093 H   0  0  0  0  0  0
   17.6488   -3.6483   54.5735 H   0  0  0  0  0  0
   17.2979   -1.9489   54.2937 H   0  0  0  0  0  0
   17.8831   -2.9946   52.9789 H   0  0  0  0  0  0
  1  4  1  0  0  0
  1 21  2  0  0  0
  1 27  1  0  0  0
  2  3  1  0  0  0
  2 22  2  0  0  0
  2 28  1  0  0  0
  3  4  1  0  0  0
  3  8  2  0  0  0
  4  5  2  0  0  0
  5  6  1  0  0  0
  6  7  2  0  0  0
  6 16  1  0  0  0
  7  8  1  0  0  0
  8  9  1  0  0  0
  9 10  1  0  0  0
  9 29  1  0  0  0
 10 11  2  0  0  0
 10 15  1  0  0  0
 11 12  1  0  0  0
 11 30  1  0  0  0
 12 13  2  0  0  0
 12 31  1  0  0  0
 13 14  1  0  0  0
 13 17  1  0  0  0
 14 15  2  0  0  0
 14 32  1  0  0  0
 15 33  1  0  0  0
 17 18  1  0  0  0
 17 19  2  0  0  0
 17 20  2  0  0  0
 18 34  1  0  0  0
 18 35  1  0  0  0
 21 22  1  0  0  0
 21 25  1  0  0  0
 22 23  1  0  0  0
 23 24  1  0  0  0
 24 36  1  0  0  0
 24 37  1  0  0  0
 24 38  1  0  0  0
 25 26  1  0  0  0
 26 39  1  0  0  0
 26 40  1  0  0  0
 26 41  1  0  0  0
M  END
> <s_m_entry_id>
409

> <s_m_entry_name>
pocket_pv.220

> <s_m_Source_Path>
/home/bortolaa/Project/GT/mario-master/docking/set505protein_struct_1_site_1_set505ligs_train

> <s_m_Source_File>
pocket_pv.maegz

> <i_m_Source_File_Index>
220

> <From>
www.bindingDB.org

> <BindingDB Reactant_set_id>
51086575

> <Ligand InChI>
InChI=1S/C16H15ClN4O4S/c1-24-13-7-11-12(8-14(13)25-2)20-16(17)21-15(11)19-9-3-5-10(6-4-9)26(18,22)23/h3-8H,1-2H3,(H2,18,22,23)(H,19,20,21)

> <Ligand InChI Key>
WDJAHURGRNMJIP-UHFFFAOYSA-N

> <BindingDB MonomerID>
50444635

> <BindingDB Ligand Name>
CHEMBL3098317

> <Target Name Assigned by Curator or DataSource>
Epidermal growth factor receptor

> <Target Source Organism According to Curator or DataSource>
Homo sapiens

> <Ki (nM)>


> <IC50 (nM)>
2370

> <Kd (nM)>


> <EC50 (nM)>


> <kon (M-1-s-1)>


> <koff (s-1)>


> <pH>


> <Temp C>


> <Curation/DataSource>
ChEMBL

> <Article DOI>
10.1016/j.ejmech.2013.10.058

> <PubChem AID>


> <Patent Number>


> <Authors>
Barbosa, ML; Lima, LM; Tesch, R; Sant'Anna, CM; Totzke, F; Kubbutat, MH; Schachtele, C; Laufer, SA; Barreiro, EJ

> <Institution>
Federal University of Rio de Janeiro

> <Link to Ligand in BindingDB>
http://www.bindingdb.org/bind/chemsearch/marvin/MolStructure.jsp?monomerid=50444635

> <Link to Ligand-Target Pair in BindingDB>
http://www.bindingdb.org/jsp/dbsearch/PrimarySearch_ki.jsp?energyterm=kJ/mole&tag=r21&monomerid=50444635&enzyme=Epidermal+growth+factor+receptor&column=ki&startPg=0&Increment=50&submit=Search

> <Ligand HET ID in PDB>


> <PDB ID(s) for Ligand-Target Complex>


> <PubChem CID>
22692848

> <PubChem SID>
194942531

> <ChEBI ID of Ligand>


> <ChEMBL ID of Ligand>
CHEMBL3098317

> <DrugBank ID of Ligand>


> <IUPHAR_GRAC ID of Ligand>


> <KEGG ID of Ligand>


> <ZINC ID of Ligand>


> <Number of Protein Chains in Target (>
1

> <BindingDB Target Chain Sequence>
MRPSGTAGAALLALLAALCPASRALEEKKVCQGTSNKLTQLGTFEDHFLSLQRMFNNCEVVLGNLEITYVQRNYDLSFLKTIQEVAGYVLIALNTVERIPLENLQIIRGNMYYENSYALAVLSNYDANKTGLKELPMRNLQEILHGAVRFSNNPALCNVESIQWRDIVSSDFLSNMSMDFQNHLGSCQKCDPSCPNGSCWGAGEENCQKLTKIICAQQCSGRCRGKSPSDCCHNQCAAGCTGPRESDCLVCRKFRDEATCKDTCPPLMLYNPTTYQMDVNPEGKYSFGATCVKKCPRNYVVTDHGSCVRACGADSYEMEEDGVRKCKKCEGPCRKVCNGIGIGEFKDSLSINATNIKHFKNCTSISGDLHILPVAFRGDSFTHTPPLDPQELDILKTVKEITGFLLIQAWPENRTDLHAFENLEIIRGRTKQHGQFSLAVVSLNITSLGLRSLKEISDGDVIISGNKNLCYANTINWKKLFGTSGQKTKIISNRGENSCKATGQVCHALCSPEGCWGPEPRDCVSCRNVSRGRECVDKCNLLEGEPREFVENSECIQCHPECLPQAMNITCTGRGPDNCIQCAHYIDGPHCVKTCPAGVMGENNTLVWKYADAGHVCHLCHPNCTYGCTGPGLEGCPTNGPKIPSIATGMVGALLLLLVVALGIGLFMRRRHIVRKRTLRRLLQERELVEPLTPSGEAPNQALLRILKETEFKKIKVLGSGAFGTVYKGLWIPEGEKVKIPVAIKELREATSPKANKEILDEAYVMASVDNPHVCRLLGICLTSTVQLITQLMPFGCLLDYVREHKDNIGSQYLLNWCVQIAKGMNYLEDRRLVHRDLAARNVLVKTPQHVKITDFGLAKLLGAEEKEYHAEGGKVPIKWMALESILHRIYTHQSDVWSYGVTVWELMTFGSKPYDGIPASEISSILEKGERLPQPPICTIDVYMIMVKCWMIDADSRPKFRELIIEFSKMARDPQRYLVIQGDERMHLPSPTDSNFYRALMDEEDMDDVVDADEYLIPQQGFFSSPSTSRTPLLSSLSATSNNSTVACIDRNGLQSCPIKEDSFLQRYSSDPTGALTEDSIDDTFLPVPEYINQSVPKRPAGSVQNPVYHNQPLNPAPSRDPHYQDPHSTAVGNPEYLNTVQPTCVNSTFDSPAHWAQKGSHQISLDNPDYQQDFFPKEAKPNGIFKGSTAENAEYLRVAPQSSEFIGA

> <PDB ID(s) of Target Chain>
1IVO,1M14,1M17,1MOX,1XKK,1Z9I,2GS2,2GS6,2ITW,2ITX,2ITY,2J5E,2J5F,2J6M,2RF9,2RGP,3B2V,3BEL,3GOP,3POZ,3QWQ,3VJO,3W2O,3W2P,3W2Q,3W2R,3W2S,3W32,3W33,4G5J,4I23,4JQ7,4JQ8,4JR3,4JRV,4KRO,4LI5,4RJ4,4RJ5,4RJ6,4RJ7,4RJ8,4TKS,4UIP,4UV7,4WKQ,4WRG,4ZAU,5C8K,5C8M,5C8N,5CAL,5CAN,5CAO,5CAP,5CAQ,5CAS,5CAU,5CAV,5EDP,5EDQ,5EDR,5EM5,5EM6,5EM7,5EM8,5FED,5GNK,5HCX,5HCY,5HCZ,5HIB,5HIC,5UGB,5WB7,5WB8,5Y25,6S89,6S8A

> <UniProt (SwissProt) Recommended Name of Target Chain>
Epidermal growth factor receptor

> <UniProt (SwissProt) Entry Name of Target Chain>
EGFR_HUMAN

> <UniProt (SwissProt) Primary ID of Target Chain>
P00533

> <UniProt (SwissProt) Secondary ID(s) of Target Chain>
O00688,O00732,P06268,Q14225,Q68GS5,Q92795,Q9BZS2,Q9GZX1,Q9H2C9,Q9H3C9,Q9UMD7,Q9UMD8,Q9UMG5

> <UniProt (SwissProt) Alternative ID(s) of Target Chain>


> <UniProt (TrEMBL) Submitted Name of Target Chain>


> <UniProt (TrEMBL) Entry Name of Target Chain>


> <UniProt (TrEMBL) Primary ID of Target Chain>


> <UniProt (TrEMBL) Secondary ID(s) of Target Chain>


> <UniProt (TrEMBL) Alternative ID(s) of Target Chain>


> <training label>
5.62525

> <i_lp_mmshare_version>
54117

> <s_epik_input>
W0NIM11PYyhbY0hdMSljKE9bQ0gzXSlbY0hdYyhjMTIpbmMoQ2wpbmMyW05IXWMzW2NIXVtjSF1jKFtjSF1bY0hdMylTKD1PKSg9TylbTkgyXQ==

> <s_epik_cmdline>
J2VwaWtfcHl0aG9uJywgJy1waHQnLCAnMC4xJywgJy1waCcsICc3LjQnLCAnLXRuJywgJzgnLCAnLW1hJywgJzIwMCcsICctaW1hZScsICc8aW5maWxlLm1hZT4nLCAnLW9tYWUnLCAnPG91dGZpbGUubWFlPic=

> <r_lp_tautomer_probability>
1

> <r_epik_Ionization_Penalty>
  0.0006

> <r_epik_Ionization_Penalty_Charging>
  0.0000

> <r_epik_Ionization_Penalty_Neutral>
  0.0006

> <r_epik_State_Penalty>
  0.0000

> <r_epik_Charging_Adjusted_Penalty>
0

> <i_epik_Tot_Q>
0

> <i_epik_Tot_abs_Q>
0

> <i_f3d_flags>
0

> <s_lp_Force_Field>
OPLS_2005

> <r_lp_Energy>
24.470529

> <b_lp_Chiralities_Consistent>
1

> <s_lp_Variant>
BindingDB_50444635_mol_1-1

> <s_i_glide_gridfile>
struct_1_site_1

> <i_i_glide_lignum>
54

> <i_i_glide_rotatable_bonds>
5

> <r_i_docking_score>
-6.5222465438994

> <r_i_glide_ligand_efficiency>
-0.250855636303823

> <r_i_glide_ligand_efficiency_sa>
-0.743158835480811

> <r_i_glide_ligand_efficiency_ln>
-1.5317281995983

> <r_i_glide_gscore>
-6.5222465438994

> <r_i_glide_lipo>
-2.48639733320648

> <r_i_glide_hbond>
-0.331621646172881

> <r_i_glide_metal>
0

> <r_i_glide_rewards>
-1.17953926607942

> <r_i_glide_evdw>
-38.3227424621582

> <r_i_glide_ecoul>
-5.3925085067749

> <r_i_glide_erotb>
0.250797492834306

> <r_i_glide_esite>
-0.0504723921507817

> <r_i_glide_emodel>
-28.8032348923474

> <r_i_glide_energy>
-43.7152509689331

> <r_i_glide_einternal>
9.87304973602295

> <i_i_glide_confnum>
12

> <i_i_glide_posenum>
225

> <r_i_glide_eff_state_penalty>
0

> <PMID>
24269511

> <r_glide_shape_similarity>
0.710250675678253

> <s_m_subgroup_title>
505 training

> <s_m_subgroupid>
pocket_pv

> <b_m_subgroup_collapsed>
0

$$$$
/home/bortolaa/Project/GT/mario-master/ligands/set505ligs_train.sdf:55
                    3D
 Schrodinger Suite 2021-2.
 52 55  0  0  1  0            999 V2000
   23.8742   -0.0933   53.9035 C   0  0  0  0  0  0
   25.1844    0.4038   53.6883 C   0  0  0  0  0  0
   26.1924   -0.0628   54.5670 C   0  0  0  0  0  0
   25.8847   -0.8660   55.6051 N   0  0  0  0  0  0
   24.6162   -1.2673   55.7266 C   0  0  0  0  0  0
   23.6111   -0.9461   54.9171 N   0  0  0  0  0  0
   27.5193    0.3667   54.3975 C   0  0  0  0  0  0
   27.8437    1.3538   53.4443 C   0  0  0  0  0  0
   26.8429    1.8214   52.5716 C   0  0  0  0  0  0
   25.5179    1.3322   52.6807 C   0  0  0  0  0  0
   27.2310    2.7507   51.6321 O   0  0  0  0  0  0
   26.2200    3.5305   50.9985 C   0  0  0  0  0  0
   29.0817    1.9509   53.3719 O   0  0  0  0  0  0
   29.8880    1.8608   54.5429 C   0  0  0  0  0  0
   22.8370    0.3376   53.0727 N   0  0  0  0  0  0
   21.4812    0.0060   53.0347 C   0  0  0  0  0  0
   20.8611   -0.9403   53.8868 C   0  0  0  0  0  0
   19.4863   -1.1682   53.7756 C   0  0  0  0  0  0
   18.7090   -0.4702   52.8316 C   0  0  0  0  0  0
   19.3247    0.4534   51.9541 C   0  0  0  0  0  0
   20.7067    0.6889   52.0672 C   0  0  0  0  0  0
   17.3206   -0.7485   52.8705 N   0  0  0  0  0  0
   16.3076   -0.0674   52.3168 C   0  0  0  0  0  0
   15.1969   -0.2213   53.0553 N   0  0  0  0  0  0
   16.3822    0.6077   51.2908 O   0  0  0  0  0  0
   13.8714    0.0764   52.6721 C   0  0  0  0  0  0
   13.0264    0.7130   53.6159 C   0  0  0  0  0  0
   11.6725    0.9743   53.2924 C   0  0  0  0  0  0
   11.1553    0.5797   52.0317 C   0  0  0  0  0  0
   11.9974   -0.0662   51.0903 C   0  0  0  0  0  0
   13.3539   -0.3273   51.4087 C   0  0  0  0  0  0
   14.1344   -0.9956   50.5165 F   0  0  0  0  0  0
    9.8476    0.8028   51.7293 F   0  0  0  0  0  0
   24.3771   -1.9122   56.5624 H   0  0  0  0  0  0
   28.2639   -0.0076   55.0811 H   0  0  0  0  0  0
   24.7589    1.6778   52.0006 H   0  0  0  0  0  0
   26.6736    4.3580   50.4532 H   0  0  0  0  0  0
   25.6389    2.9435   50.2864 H   0  0  0  0  0  0
   25.5400    3.9655   51.7296 H   0  0  0  0  0  0
   30.6846    2.6005   54.5710 H   0  0  0  0  0  0
   29.3063    2.0104   55.4490 H   0  0  0  0  0  0
   30.3318    0.8723   54.5743 H   0  0  0  0  0  0
   23.1089    1.0424   52.4059 H   0  0  0  0  0  0
   21.3705   -1.5181   54.6391 H   0  0  0  0  0  0
   19.0195   -1.8804   54.4382 H   0  0  0  0  0  0
   18.7627    0.9878   51.2033 H   0  0  0  0  0  0
   21.1652    1.4057   51.4012 H   0  0  0  0  0  0
   17.0468   -1.3868   53.6045 H   0  0  0  0  0  0
   15.2835   -0.6312   53.9801 H   0  0  0  0  0  0
   13.4157    1.0128   54.5794 H   0  0  0  0  0  0
   11.0260    1.4650   54.0088 H   0  0  0  0  0  0
   11.5961   -0.3805   50.1370 H   0  0  0  0  0  0
  1  2  2  0  0  0
  1  6  1  0  0  0
  1 15  1  0  0  0
  2 10  1  0  0  0
  2  3  1  0  0  0
  3  4  2  0  0  0
  3  7  1  0  0  0
  4  5  1  0  0  0
  5  6  2  0  0  0
  5 34  1  0  0  0
  7  8  2  0  0  0
  7 35  1  0  0  0
  8  9  1  0  0  0
  8 13  1  0  0  0
  9 10  2  0  0  0
  9 11  1  0  0  0
 10 36  1  0  0  0
 11 12  1  0  0  0
 12 37  1  0  0  0
 12 38  1  0  0  0
 12 39  1  0  0  0
 13 14  1  0  0  0
 14 40  1  0  0  0
 14 41  1  0  0  0
 14 42  1  0  0  0
 15 16  1  0  0  0
 15 43  1  0  0  0
 16 17  2  0  0  0
 16 21  1  0  0  0
 17 18  1  0  0  0
 17 44  1  0  0  0
 18 19  2  0  0  0
 18 45  1  0  0  0
 19 20  1  0  0  0
 19 22  1  0  0  0
 20 21  2  0  0  0
 20 46  1  0  0  0
 21 47  1  0  0  0
 22 23  1  0  0  0
 22 48  1  0  0  0
 23 24  1  0  0  0
 23 25  2  0  0  0
 24 26  1  0  0  0
 24 49  1  0  0  0
 26 27  2  0  0  0
 26 31  1  0  0  0
 27 28  1  0  0  0
 27 50  1  0  0  0
 28 29  2  0  0  0
 28 51  1  0  0  0
 29 30  1  0  0  0
 29 33  1  0  0  0
 30 31  2  0  0  0
 30 52  1  0  0  0
 31 32  1  0  0  0
M  END
> <s_m_entry_id>
410

> <s_m_entry_name>
pocket_pv.221

> <s_m_Source_Path>
/home/bortolaa/Project/GT/mario-master/docking/set505protein_struct_1_site_1_set505ligs_train

> <s_m_Source_File>
pocket_pv.maegz

> <i_m_Source_File_Index>
221

> <From>
www.bindingDB.org

> <BindingDB Reactant_set_id>
406591

> <Ligand InChI>
InChI=1S/C23H19F2N5O3/c1-32-20-10-16-19(11-21(20)33-2)26-12-27-22(16)28-14-4-6-15(7-5-14)29-23(31)30-18-8-3-13(24)9-17(18)25/h3-12H,1-2H3,(H,26,27,28)(H2,29,30,31)

> <Ligand InChI Key>
SIBBDCDYYYTSNN-UHFFFAOYSA-N

> <BindingDB MonomerID>
233105

> <BindingDB Ligand Name>
N-{4-[6,7-Dimethoxy-quinazolin-4-ylamino]phenyl}-N&#39;-(2,4-difluorophenyl)urea (11f)

> <Target Name Assigned by Curator or DataSource>
Epidermal growth factor receptor

> <Target Source Organism According to Curator or DataSource>
Homo sapiens

> <Ki (nM)>


> <IC50 (nM)>
2100

> <Kd (nM)>


> <EC50 (nM)>


> <kon (M-1-s-1)>


> <koff (s-1)>


> <Temp C>


> <Curation/DataSource>
Curated from the literature by BindingDB

> <Article DOI>
10.3109/14756360903169485

> <PubChem AID>


> <Patent Number>


> <Authors>
Garofalo, A; Goossens, L; Lemoine, A; Farce, A; Arlot, Y; Depreux, P

> <Institution>
Université Lille Nord de France

> <Link to Ligand in BindingDB>
http://www.bindingdb.org/bind/chemsearch/marvin/MolStructure.jsp?monomerid=233105

> <Link to Ligand-Target Pair in BindingDB>
http://www.bindingdb.org/jsp/dbsearch/PrimarySearch_ki.jsp?energyterm=kJ/mole&tag=r21&monomerid=233105&enzyme=Epidermal+growth+factor+receptor&column=ki&startPg=0&Increment=50&submit=Search

> <Ligand HET ID in PDB>


> <PDB ID(s) for Ligand-Target Complex>


> <PubChem CID>
46209505

> <PubChem SID>
340093199

> <ChEBI ID of Ligand>


> <ChEMBL ID of Ligand>


> <DrugBank ID of Ligand>


> <IUPHAR_GRAC ID of Ligand>


> <KEGG ID of Ligand>


> <ZINC ID of Ligand>


> <Number of Protein Chains in Target (>
1

> <BindingDB Target Chain Sequence>
MRPSGTAGAALLALLAALCPASRALEEKKVCQGTSNKLTQLGTFEDHFLSLQRMFNNCEVVLGNLEITYVQRNYDLSFLKTIQEVAGYVLIALNTVERIPLENLQIIRGNMYYENSYALAVLSNYDANKTGLKELPMRNLQEILHGAVRFSNNPALCNVESIQWRDIVSSDFLSNMSMDFQNHLGSCQKCDPSCPNGSCWGAGEENCQKLTKIICAQQCSGRCRGKSPSDCCHNQCAAGCTGPRESDCLVCRKFRDEATCKDTCPPLMLYNPTTYQMDVNPEGKYSFGATCVKKCPRNYVVTDHGSCVRACGADSYEMEEDGVRKCKKCEGPCRKVCNGIGIGEFKDSLSINATNIKHFKNCTSISGDLHILPVAFRGDSFTHTPPLDPQELDILKTVKEITGFLLIQAWPENRTDLHAFENLEIIRGRTKQHGQFSLAVVSLNITSLGLRSLKEISDGDVIISGNKNLCYANTINWKKLFGTSGQKTKIISNRGENSCKATGQVCHALCSPEGCWGPEPRDCVSCRNVSRGRECVDKCNLLEGEPREFVENSECIQCHPECLPQAMNITCTGRGPDNCIQCAHYIDGPHCVKTCPAGVMGENNTLVWKYADAGHVCHLCHPNCTYGCTGPGLEGCPTNGPKIPSIATGMVGALLLLLVVALGIGLFMRRRHIVRKRTLRRLLQERELVEPLTPSGEAPNQALLRILKETEFKKIKVLGSGAFGTVYKGLWIPEGEKVKIPVAIKELREATSPKANKEILDEAYVMASVDNPHVCRLLGICLTSTVQLITQLMPFGCLLDYVREHKDNIGSQYLLNWCVQIAKGMNYLEDRRLVHRDLAARNVLVKTPQHVKITDFGLAKLLGAEEKEYHAEGGKVPIKWMALESILHRIYTHQSDVWSYGVTVWELMTFGSKPYDGIPASEISSILEKGERLPQPPICTIDVYMIMVKCWMIDADSRPKFRELIIEFSKMARDPQRYLVIQGDERMHLPSPTDSNFYRALMDEEDMDDVVDADEYLIPQQGFFSSPSTSRTPLLSSLSATSNNSTVACIDRNGLQSCPIKEDSFLQRYSSDPTGALTEDSIDDTFLPVPEYINQSVPKRPAGSVQNPVYHNQPLNPAPSRDPHYQDPHSTAVGNPEYLNTVQPTCVNSTFDSPAHWAQKGSHQISLDNPDYQQDFFPKEAKPNGIFKGSTAENAEYLRVAPQSSEFIGA

> <PDB ID(s) of Target Chain>
1IVO,1M14,1M17,1MOX,1XKK,1Z9I,2GS2,2GS6,2ITW,2ITX,2ITY,2J5E,2J5F,2J6M,2RF9,2RGP,3B2V,3BEL,3GOP,3POZ,3QWQ,3VJO,3W2O,3W2P,3W2Q,3W2R,3W2S,3W32,3W33,4G5J,4I23,4JQ7,4JQ8,4JR3,4JRV,4KRO,4LI5,4RJ4,4RJ5,4RJ6,4RJ7,4RJ8,4TKS,4UIP,4UV7,4WKQ,4WRG,4ZAU,5C8K,5C8M,5C8N,5CAL,5CAN,5CAO,5CAP,5CAQ,5CAS,5CAU,5CAV,5EDP,5EDQ,5EDR,5EM5,5EM6,5EM7,5EM8,5FED,5GNK,5HCX,5HCY,5HCZ,5HIB,5HIC,5UGB,5WB7,5WB8,5Y25,6S89,6S8A

> <UniProt (SwissProt) Recommended Name of Target Chain>
Epidermal growth factor receptor

> <UniProt (SwissProt) Entry Name of Target Chain>
EGFR_HUMAN

> <UniProt (SwissProt) Primary ID of Target Chain>
P00533

> <UniProt (SwissProt) Secondary ID(s) of Target Chain>
O00688,O00732,P06268,Q14225,Q68GS5,Q92795,Q9BZS2,Q9GZX1,Q9H2C9,Q9H3C9,Q9UMD7,Q9UMD8,Q9UMG5

> <UniProt (SwissProt) Alternative ID(s) of Target Chain>


> <UniProt (TrEMBL) Submitted Name of Target Chain>


> <UniProt (TrEMBL) Entry Name of Target Chain>


> <UniProt (TrEMBL) Primary ID of Target Chain>


> <UniProt (TrEMBL) Secondary ID(s) of Target Chain>


> <UniProt (TrEMBL) Alternative ID(s) of Target Chain>


> <training label>
5.67778

> <i_lp_mmshare_version>
54117

> <s_epik_input>
W0NIM11PYyhbY0hdMSljKE9bQ0gzXSlbY0hdYyhjMTIpbltjSF1uYzJbTkhdYzNbY0hdW2NIXWMoW2NIXVtjSF0zKVtOSF1DKD1PKVtOSF1jNFtjSF1bY0hdYyhGKVtjSF1jNEY=

> <s_epik_cmdline>
J2VwaWtfcHl0aG9uJywgJy1waHQnLCAnMC4xJywgJy1waCcsICc3LjQnLCAnLXRuJywgJzgnLCAnLW1hJywgJzIwMCcsICctaW1hZScsICc8aW5maWxlLm1hZT4nLCAnLW9tYWUnLCAnPG91dGZpbGUubWFlPic=

> <r_lp_tautomer_probability>
1

> <r_epik_Ionization_Penalty>
  0.0007

> <r_epik_Ionization_Penalty_Charging>
  0.0000

> <r_epik_Ionization_Penalty_Neutral>
  0.0007

> <r_epik_State_Penalty>
  0.0000

> <r_epik_Charging_Adjusted_Penalty>
0

> <i_epik_Tot_Q>
0

> <i_epik_Tot_abs_Q>
0

> <i_f3d_flags>
0

> <s_lp_Force_Field>
OPLS_2005

> <r_lp_Energy>
33.484989

> <b_lp_Chiralities_Consistent>
1

> <s_lp_Variant>
/home/bortolaa/Project/GT/mario-master/ligands/set505ligs_train.sdf:55-1

> <s_i_glide_gridfile>
struct_1_site_1

> <i_i_glide_lignum>
55

> <i_i_glide_rotatable_bonds>
8

> <r_i_docking_score>
-6.49223060474879

> <r_i_glide_ligand_efficiency>
-0.196734260749963

> <r_i_glide_ligand_efficiency_sa>
-0.631031894506388

> <r_i_glide_ligand_efficiency_ln>
-1.44383847152509

> <r_i_glide_gscore>
-6.49223060474879

> <r_i_glide_lipo>
-2.19943757859067

> <r_i_glide_hbond>
-0.650926081716469

> <r_i_glide_metal>
0

> <r_i_glide_rewards>
-0.747718632277666

> <r_i_glide_evdw>
-41.9136123657227

> <r_i_glide_ecoul>
-8.1329984664917

> <r_i_glide_erotb>
0.492111160909082

> <r_i_glide_esite>
-0.0706290848131767

> <r_i_glide_emodel>
-25.9385230007261

> <r_i_glide_energy>
-50.0466108322144

> <r_i_glide_einternal>
7.0643630027771

> <i_i_glide_confnum>
22

> <i_i_glide_posenum>
247

> <r_i_glide_eff_state_penalty>
0

> <PMID>
20222760

> <r_glide_shape_similarity>
0.602502882480621

> <pH>
7.5

> <s_m_subgroup_title>
505 training

> <s_m_subgroupid>
pocket_pv

> <b_m_subgroup_collapsed>
0

$$$$
/home/bortolaa/Project/GT/mario-master/ligands/set505ligs_train.sdf:169
                    3D
 Schrodinger Suite 2021-2.
 56 59  0  0  1  0            999 V2000
   27.4055    5.1906   48.6513 C   0  0  0  0  0  0
   26.3950    5.0961   49.8216 C   0  0  0  0  0  0
   26.2889    3.6767   50.4160 C   0  0  0  0  0  0
   26.2909    3.5310   51.7677 N   0  0  0  0  0  0
   26.1479    2.3100   52.4944 C   0  0  0  0  0  0
   27.2368    1.7527   53.2258 C   0  0  0  0  0  0
   28.4748    2.3671   53.1484 O   0  0  0  0  0  0
   29.4912    1.9600   54.0703 C   0  0  0  0  0  0
   26.9951    0.6039   54.0177 C   0  0  0  0  0  0
   25.6919    0.0899   54.1825 C   0  0  0  0  0  0
   25.4552   -0.8726   55.0991 N   0  0  0  0  0  0
   24.1915   -1.2835   55.2652 C   0  0  0  0  0  0
   23.1275   -0.8999   54.5721 N   0  0  0  0  0  0
   23.3334    0.0704   53.6458 C   0  0  0  0  0  0
   22.2488    0.5503   52.9088 N   0  0  0  0  0  0
   20.9141    0.1386   52.8240 C   0  0  0  0  0  0
   20.1730    0.7118   51.7752 C   0  0  0  0  0  0
   18.8123    0.4107   51.6015 C   0  0  0  0  0  0
   18.1613   -0.4675   52.5084 C   0  0  0  0  0  0
   18.9150   -1.0858   53.5312 C   0  0  0  0  0  0
   20.2788   -0.7896   53.6912 C   0  0  0  0  0  0
   24.6203    0.6391   53.4297 C   0  0  0  0  0  0
   24.8560    1.7381   52.5748 C   0  0  0  0  0  0
   26.2421    2.7295   49.6333 O   0  0  0  0  0  0
   16.8153   -0.7639   52.4752 O   0  0  0  0  0  0
   15.9304    0.0847   51.7449 C   0  0  0  0  0  0
   14.7173    0.4494   52.5783 C   0  0  0  0  0  0
   13.9879   -0.5528   53.2555 C   0  0  0  0  0  0
   12.8305   -0.2225   54.0004 C   0  0  0  0  0  0
   12.4016    1.1267   54.0684 C   0  0  0  0  0  0
   13.1253    2.1336   53.3890 C   0  0  0  0  0  0
   14.2813    1.7967   52.6417 C   0  0  0  0  0  0
   27.4344    6.2017   48.2383 H   0  0  0  0  0  0
   27.1446    4.5032   47.8422 H   0  0  0  0  0  0
   28.4140    4.9430   48.9825 H   0  0  0  0  0  0
   26.6842    5.8292   50.5744 H   0  0  0  0  0  0
   25.4103    5.4030   49.4763 H   0  0  0  0  0  0
   26.4776    4.3797   52.3206 H   0  0  0  0  0  0
   30.2568    2.7293   54.1530 H   0  0  0  0  0  0
   29.1193    1.8374   55.0889 H   0  0  0  0  0  0
   29.9572    1.0293   53.7452 H   0  0  0  0  0  0
   27.7764    0.1530   54.5999 H   0  0  0  0  0  0
   24.0332   -2.0653   55.9906 H   0  0  0  0  0  0
   22.5029    1.2453   52.2217 H   0  0  0  0  0  0
   20.6415    1.3976   51.0887 H   0  0  0  0  0  0
   18.2968    0.8675   50.7691 H   0  0  0  0  0  0
   18.4286   -1.7698   54.2129 H   0  0  0  0  0  0
   20.7920   -1.2658   54.5035 H   0  0  0  0  0  0
   24.0543    2.2065   52.0326 H   0  0  0  0  0  0
   16.3738    1.0315   51.4175 H   0  0  0  0  0  0
   15.6020   -0.4373   50.8493 H   0  0  0  0  0  0
   14.3134   -1.5858   53.2089 H   0  0  0  0  0  0
   12.2878   -0.9990   54.5197 H   0  0  0  0  0  0
   11.5218    1.3799   54.6410 H   0  0  0  0  0  0
   12.7895    3.1634   53.4334 H   0  0  0  0  0  0
   14.8195    2.5746   52.1139 H   0  0  0  0  0  0
  1  2  1  0  0  0
  1 33  1  0  0  0
  1 34  1  0  0  0
  1 35  1  0  0  0
  2  3  1  0  0  0
  2 36  1  0  0  0
  2 37  1  0  0  0
  3  4  1  0  0  0
  3 24  2  0  0  0
  4  5  1  0  0  0
  4 38  1  0  0  0
  5  6  2  0  0  0
  5 23  1  0  0  0
  6  7  1  0  0  0
  6  9  1  0  0  0
  7  8  1  0  0  0
  8 39  1  0  0  0
  8 40  1  0  0  0
  8 41  1  0  0  0
  9 10  2  0  0  0
  9 42  1  0  0  0
 10 11  1  0  0  0
 10 22  1  0  0  0
 11 12  2  0  0  0
 12 13  1  0  0  0
 12 43  1  0  0  0
 13 14  2  0  0  0
 14 15  1  0  0  0
 14 22  1  0  0  0
 15 16  1  0  0  0
 15 44  1  0  0  0
 16 17  2  0  0  0
 16 21  1  0  0  0
 17 18  1  0  0  0
 17 45  1  0  0  0
 18 19  2  0  0  0
 18 46  1  0  0  0
 19 20  1  0  0  0
 19 25  1  0  0  0
 20 21  2  0  0  0
 20 47  1  0  0  0
 21 48  1  0  0  0
 22 23  2  0  0  0
 23 49  1  0  0  0
 25 26  1  0  0  0
 26 27  1  0  0  0
 26 50  1  0  0  0
 26 51  1  0  0  0
 27 28  2  0  0  0
 27 32  1  0  0  0
 28 29  1  0  0  0
 28 52  1  0  0  0
 29 30  2  0  0  0
 29 53  1  0  0  0
 30 31  1  0  0  0
 30 54  1  0  0  0
 31 32  2  0  0  0
 31 55  1  0  0  0
 32 56  1  0  0  0
M  END
> <s_m_entry_id>
411

> <s_m_entry_name>
pocket_pv.222

> <s_m_Source_Path>
/home/bortolaa/Project/GT/mario-master/docking/set505protein_struct_1_site_1_set505ligs_train

> <s_m_Source_File>
pocket_pv.maegz

> <i_m_Source_File_Index>
222

> <From>
www.bindingDB.org

> <BindingDB Reactant_set_id>
50518413

> <Ligand InChI>
InChI=1S/C25H24N4O3/c1-3-24(30)29-22-13-20-21(14-23(22)31-2)26-16-27-25(20)28-18-9-11-19(12-10-18)32-15-17-7-5-4-6-8-17/h4-14,16H,3,15H2,1-2H3,(H,29,30)(H,26,27,28)

> <Ligand InChI Key>
YUEWCBSNZWDONI-UHFFFAOYSA-N

> <BindingDB MonomerID>
50191651

> <BindingDB Ligand Name>
CHEMBL3934034

> <Target Name Assigned by Curator or DataSource>
Epidermal growth factor receptor

> <Target Source Organism According to Curator or DataSource>
Homo sapiens

> <Ki (nM)>


> <Kd (nM)>


> <EC50 (nM)>


> <kon (M-1-s-1)>


> <koff (s-1)>


> <pH>


> <Temp C>


> <Curation/DataSource>
ChEMBL

> <Article DOI>
10.1021/acs.jmedchem.6b00883

> <PubChem AID>


> <Patent Number>


> <Authors>
Smaill, JB; Gonzales, AJ; Spicer, JA; Lee, H; Reed, JE; Sexton, K; Althaus, IW; Zhu, T; Black, SL; Blaser, A; Denny, WA; Ellis, PA; Fakhoury, S; Harvey, PJ; Hook, K; McCarthy, FO; Palmer, BD; Rivault, F; Schlosser, K; Ellis, T; Thompson, AM; Trachet, E; Winters, RT; Tecle, H; Bridges, A

> <Institution>
University of Auckland

> <Link to Ligand in BindingDB>
http://www.bindingdb.org/bind/chemsearch/marvin/MolStructure.jsp?monomerid=50191651

> <Link to Ligand-Target Pair in BindingDB>
http://www.bindingdb.org/jsp/dbsearch/PrimarySearch_ki.jsp?energyterm=kJ/mole&tag=r21&monomerid=50191651&enzyme=Epidermal+growth+factor+receptor&column=ki&startPg=0&Increment=50&submit=Search

> <Ligand HET ID in PDB>


> <PDB ID(s) for Ligand-Target Complex>


> <PubChem CID>
134138310

> <PubChem SID>
375075719

> <ChEBI ID of Ligand>


> <ChEMBL ID of Ligand>
CHEMBL3934034

> <DrugBank ID of Ligand>


> <IUPHAR_GRAC ID of Ligand>


> <KEGG ID of Ligand>


> <ZINC ID of Ligand>


> <Number of Protein Chains in Target (>
1

> <BindingDB Target Chain Sequence>
MRPSGTAGAALLALLAALCPASRALEEKKVCQGTSNKLTQLGTFEDHFLSLQRMFNNCEVVLGNLEITYVQRNYDLSFLKTIQEVAGYVLIALNTVERIPLENLQIIRGNMYYENSYALAVLSNYDANKTGLKELPMRNLQEILHGAVRFSNNPALCNVESIQWRDIVSSDFLSNMSMDFQNHLGSCQKCDPSCPNGSCWGAGEENCQKLTKIICAQQCSGRCRGKSPSDCCHNQCAAGCTGPRESDCLVCRKFRDEATCKDTCPPLMLYNPTTYQMDVNPEGKYSFGATCVKKCPRNYVVTDHGSCVRACGADSYEMEEDGVRKCKKCEGPCRKVCNGIGIGEFKDSLSINATNIKHFKNCTSISGDLHILPVAFRGDSFTHTPPLDPQELDILKTVKEITGFLLIQAWPENRTDLHAFENLEIIRGRTKQHGQFSLAVVSLNITSLGLRSLKEISDGDVIISGNKNLCYANTINWKKLFGTSGQKTKIISNRGENSCKATGQVCHALCSPEGCWGPEPRDCVSCRNVSRGRECVDKCNLLEGEPREFVENSECIQCHPECLPQAMNITCTGRGPDNCIQCAHYIDGPHCVKTCPAGVMGENNTLVWKYADAGHVCHLCHPNCTYGCTGPGLEGCPTNGPKIPSIATGMVGALLLLLVVALGIGLFMRRRHIVRKRTLRRLLQERELVEPLTPSGEAPNQALLRILKETEFKKIKVLGSGAFGTVYKGLWIPEGEKVKIPVAIKELREATSPKANKEILDEAYVMASVDNPHVCRLLGICLTSTVQLITQLMPFGCLLDYVREHKDNIGSQYLLNWCVQIAKGMNYLEDRRLVHRDLAARNVLVKTPQHVKITDFGLAKLLGAEEKEYHAEGGKVPIKWMALESILHRIYTHQSDVWSYGVTVWELMTFGSKPYDGIPASEISSILEKGERLPQPPICTIDVYMIMVKCWMIDADSRPKFRELIIEFSKMARDPQRYLVIQGDERMHLPSPTDSNFYRALMDEEDMDDVVDADEYLIPQQGFFSSPSTSRTPLLSSLSATSNNSTVACIDRNGLQSCPIKEDSFLQRYSSDPTGALTEDSIDDTFLPVPEYINQSVPKRPAGSVQNPVYHNQPLNPAPSRDPHYQDPHSTAVGNPEYLNTVQPTCVNSTFDSPAHWAQKGSHQISLDNPDYQQDFFPKEAKPNGIFKGSTAENAEYLRVAPQSSEFIGA

> <PDB ID(s) of Target Chain>
1IVO,1M14,1M17,1MOX,1XKK,1Z9I,2GS2,2GS6,2ITW,2ITX,2ITY,2J5E,2J5F,2J6M,2RF9,2RGP,3B2V,3BEL,3GOP,3POZ,3QWQ,3VJO,3W2O,3W2P,3W2Q,3W2R,3W2S,3W32,3W33,4G5J,4I23,4JQ7,4JQ8,4JR3,4JRV,4KRO,4LI5,4RJ4,4RJ5,4RJ6,4RJ7,4RJ8,4TKS,4UIP,4UV7,4WKQ,4WRG,4ZAU,5C8K,5C8M,5C8N,5CAL,5CAN,5CAO,5CAP,5CAQ,5CAS,5CAU,5CAV,5EDP,5EDQ,5EDR,5EM5,5EM6,5EM7,5EM8,5FED,5GNK,5HCX,5HCY,5HCZ,5HIB,5HIC,5UGB,5WB7,5WB8,5Y25,6S89,6S8A

> <UniProt (SwissProt) Recommended Name of Target Chain>
Epidermal growth factor receptor

> <UniProt (SwissProt) Entry Name of Target Chain>
EGFR_HUMAN

> <UniProt (SwissProt) Primary ID of Target Chain>
P00533

> <UniProt (SwissProt) Secondary ID(s) of Target Chain>
O00688,O00732,P06268,Q14225,Q68GS5,Q92795,Q9BZS2,Q9GZX1,Q9H2C9,Q9H3C9,Q9UMD7,Q9UMD8,Q9UMG5

> <UniProt (SwissProt) Alternative ID(s) of Target Chain>


> <UniProt (TrEMBL) Submitted Name of Target Chain>


> <UniProt (TrEMBL) Entry Name of Target Chain>


> <UniProt (TrEMBL) Primary ID of Target Chain>


> <UniProt (TrEMBL) Secondary ID(s) of Target Chain>


> <UniProt (TrEMBL) Alternative ID(s) of Target Chain>


> <training label>
7.4437

> <i_lp_mmshare_version>
54117

> <s_epik_input>
W0NIM11bQ0gyXUMoPU8pW05IXWMoYyhbY0hdMSlPW0NIM10pW2NIXWMoYzEyKWMobltjSF1uMilbTkhdYzNbY0hdW2NIXWMoW2NIXVtjSF0zKU9bQ0gyXWM0W2NIXVtjSF1bY0hdW2NIXVtjSF00

> <s_epik_cmdline>
J2VwaWtfcHl0aG9uJywgJy1waHQnLCAnMC4xJywgJy1waCcsICc3LjQnLCAnLXRuJywgJzgnLCAnLW1hJywgJzIwMCcsICctaW1hZScsICc8aW5maWxlLm1hZT4nLCAnLW9tYWUnLCAnPG91dGZpbGUubWFlPic=

> <r_lp_tautomer_probability>
1

> <r_epik_Ionization_Penalty>
  0.0005

> <r_epik_Ionization_Penalty_Charging>
  0.0000

> <r_epik_Ionization_Penalty_Neutral>
  0.0005

> <r_epik_State_Penalty>
  0.0000

> <r_epik_Charging_Adjusted_Penalty>
0

> <i_epik_Tot_Q>
0

> <i_epik_Tot_abs_Q>
0

> <i_f3d_flags>
0

> <s_lp_Force_Field>
OPLS_2005

> <r_lp_Energy>
31.635776

> <b_lp_Chiralities_Consistent>
1

> <s_lp_Variant>
/home/bortolaa/Project/GT/mario-master/ligands/set505ligs_train.sdf:169-1

> <s_i_glide_gridfile>
struct_1_site_1

> <i_i_glide_lignum>
193

> <i_i_glide_rotatable_bonds>
9

> <r_i_docking_score>
-6.48174813293194

> <r_i_glide_ligand_efficiency>
-0.202554629154123

> <r_i_glide_ligand_efficiency_sa>
-0.643070862057662

> <r_i_glide_ligand_efficiency_ln>
-1.45144009274447

> <r_i_glide_gscore>
-6.48174813293194

> <r_i_glide_lipo>
-2.35682181073115

> <r_i_glide_hbond>
-0.277716703742503

> <r_i_glide_metal>
0

> <r_i_glide_rewards>
-0.922463983105295

> <r_i_glide_evdw>
-43.2671890258789

> <r_i_glide_ecoul>
-8.91991519927979

> <r_i_glide_erotb>
0.757354824925564

> <r_i_glide_esite>
-0.180753729092634

> <r_i_glide_emodel>
-32.1021890712197

> <r_i_glide_energy>
-52.1871042251587

> <r_i_glide_einternal>
6.94840335845947

> <i_i_glide_confnum>
129

> <i_i_glide_posenum>
95

> <r_i_glide_eff_state_penalty>
0

> <IC50 (nM)>
36

> <PMID>
27491023

> <r_glide_shape_similarity>
0.612182378768921

> <s_m_subgroup_title>
505 training

> <s_m_subgroupid>
pocket_pv

> <b_m_subgroup_collapsed>
0

$$$$
BindingDB_50444630_mol_1
                    3D
 Schrodinger Suite 2021-2.
 44 46  0  0  1  0            999 V2000
   19.2022   -0.4662   52.9485 C   0  0  0  0  0  0
   20.9424    1.2442   51.5692 C   0  0  0  0  0  0
   21.4075    0.4975   52.6657 C   0  0  0  0  0  0
   20.5450   -0.4097   53.3294 C   0  0  0  0  0  0
   20.9951   -1.2158   54.3061 N   0  0  0  0  0  0
   22.2618   -1.0702   54.6491 C   0  0  0  0  0  0
   23.1030   -0.2030   54.1746 N   0  0  0  0  0  0
   22.7278    0.5680   53.1629 C   0  0  0  0  0  0
   23.7622    1.3735   52.6728 N   0  0  0  0  0  0
   25.1204    1.0897   52.8860 C   0  0  0  0  0  0
   26.0460    2.0740   53.2671 C   0  0  0  0  0  0
   27.3685    1.7046   53.5577 C   0  0  0  0  0  0
   27.7856    0.3530   53.4632 C   0  0  0  0  0  0
   26.8609   -0.6083   53.0498 C   0  0  0  0  0  0
   25.5570   -0.2381   52.7550 C   0  0  0  0  0  0
   23.0161   -2.0661   55.7747 Cl  0  0  0  0  0  0
   18.7074    0.3186   51.8893 C   0  0  0  0  0  0
   19.5943    1.1415   51.1592 C   0  0  0  0  0  0
   19.0734    1.8284   50.0827 O   0  0  0  0  0  0
   19.9516    2.5568   49.2409 C   0  0  0  0  0  0
   17.3812    0.3195   51.5138 O   0  0  0  0  0  0
   16.4225   -0.2850   52.3662 C   0  0  0  0  0  0
   29.0880   -0.0481   53.7756 N   0  0  0  0  0  0
   29.4968   -1.4389   53.6192 C   0  0  0  0  0  0
   30.0870    0.9962   53.7748 C   0  0  0  0  0  0
   18.5589   -1.1385   53.4947 H   0  0  0  0  0  0
   21.6316    1.8960   51.0549 H   0  0  0  0  0  0
   23.5191    2.2763   52.3003 H   0  0  0  0  0  0
   25.7444    3.1074   53.3718 H   0  0  0  0  0  0
   28.0383    2.4870   53.8825 H   0  0  0  0  0  0
   27.1100   -1.6529   52.9470 H   0  0  0  0  0  0
   24.8734   -1.0179   52.4597 H   0  0  0  0  0  0
   19.3877    2.9684   48.4039 H   0  0  0  0  0  0
   20.4108    3.3914   49.7718 H   0  0  0  0  0  0
   20.7318    1.9152   48.8286 H   0  0  0  0  0  0
   15.4227   -0.0851   51.9809 H   0  0  0  0  0  0
   16.5506   -1.3673   52.4024 H   0  0  0  0  0  0
   16.4715    0.1172   53.3779 H   0  0  0  0  0  0
   28.8487   -2.1139   54.1757 H   0  0  0  0  0  0
   30.5113   -1.5839   53.9920 H   0  0  0  0  0  0
   29.4820   -1.7354   52.5742 H   0  0  0  0  0  0
   30.0607    1.5572   54.7084 H   0  0  0  0  0  0
   31.0900    0.5925   53.6471 H   0  0  0  0  0  0
   29.8888    1.6873   52.9550 H   0  0  0  0  0  0
  1  4  1  0  0  0
  1 17  2  0  0  0
  1 26  1  0  0  0
  2  3  1  0  0  0
  2 18  2  0  0  0
  2 27  1  0  0  0
  3  4  1  0  0  0
  3  8  2  0  0  0
  4  5  2  0  0  0
  5  6  1  0  0  0
  6  7  2  0  0  0
  6 16  1  0  0  0
  7  8  1  0  0  0
  8  9  1  0  0  0
  9 10  1  0  0  0
  9 28  1  0  0  0
 10 11  2  0  0  0
 10 15  1  0  0  0
 11 12  1  0  0  0
 11 29  1  0  0  0
 12 13  2  0  0  0
 12 30  1  0  0  0
 13 14  1  0  0  0
 13 23  1  0  0  0
 14 15  2  0  0  0
 14 31  1  0  0  0
 15 32  1  0  0  0
 17 18  1  0  0  0
 17 21  1  0  0  0
 18 19  1  0  0  0
 19 20  1  0  0  0
 20 33  1  0  0  0
 20 34  1  0  0  0
 20 35  1  0  0  0
 21 22  1  0  0  0
 22 36  1  0  0  0
 22 37  1  0  0  0
 22 38  1  0  0  0
 23 24  1  0  0  0
 23 25  1  0  0  0
 24 39  1  0  0  0
 24 40  1  0  0  0
 24 41  1  0  0  0
 25 42  1  0  0  0
 25 43  1  0  0  0
 25 44  1  0  0  0
M  END
> <s_m_entry_id>
412

> <s_m_entry_name>
pocket_pv.223

> <s_m_Source_Path>
/home/bortolaa/Project/GT/mario-master/docking/set505protein_struct_1_site_1_set505ligs_train

> <s_m_Source_File>
pocket_pv.maegz

> <i_m_Source_File_Index>
223

> <From>
www.bindingDB.org

> <BindingDB Reactant_set_id>
51086570

> <Ligand InChI>
InChI=1S/C18H19ClN4O2/c1-23(2)12-7-5-11(6-8-12)20-17-13-9-15(24-3)16(25-4)10-14(13)21-18(19)22-17/h5-10H,1-4H3,(H,20,21,22)

> <Ligand InChI Key>
GXBRQSCEZSXJAQ-UHFFFAOYSA-N

> <BindingDB MonomerID>
50444630

> <BindingDB Ligand Name>
CHEMBL3098319

> <Target Name Assigned by Curator or DataSource>
Epidermal growth factor receptor

> <Target Source Organism According to Curator or DataSource>
Homo sapiens

> <Ki (nM)>


> <IC50 (nM)>
36000

> <Kd (nM)>


> <EC50 (nM)>


> <kon (M-1-s-1)>


> <koff (s-1)>


> <pH>


> <Temp C>


> <Curation/DataSource>
ChEMBL

> <Article DOI>
10.1016/j.ejmech.2013.10.058

> <PubChem AID>


> <Patent Number>


> <Authors>
Barbosa, ML; Lima, LM; Tesch, R; Sant'Anna, CM; Totzke, F; Kubbutat, MH; Schachtele, C; Laufer, SA; Barreiro, EJ

> <Institution>
Federal University of Rio de Janeiro

> <Link to Ligand in BindingDB>
http://www.bindingdb.org/bind/chemsearch/marvin/MolStructure.jsp?monomerid=50444630

> <Link to Ligand-Target Pair in BindingDB>
http://www.bindingdb.org/jsp/dbsearch/PrimarySearch_ki.jsp?energyterm=kJ/mole&tag=r21&monomerid=50444630&enzyme=Epidermal+growth+factor+receptor&column=ki&startPg=0&Increment=50&submit=Search

> <Ligand HET ID in PDB>


> <PDB ID(s) for Ligand-Target Complex>


> <PubChem CID>
22692773

> <PubChem SID>
194942526

> <ChEBI ID of Ligand>


> <ChEMBL ID of Ligand>
CHEMBL3098319

> <DrugBank ID of Ligand>


> <IUPHAR_GRAC ID of Ligand>


> <KEGG ID of Ligand>


> <ZINC ID of Ligand>


> <Number of Protein Chains in Target (>
1

> <BindingDB Target Chain Sequence>
MRPSGTAGAALLALLAALCPASRALEEKKVCQGTSNKLTQLGTFEDHFLSLQRMFNNCEVVLGNLEITYVQRNYDLSFLKTIQEVAGYVLIALNTVERIPLENLQIIRGNMYYENSYALAVLSNYDANKTGLKELPMRNLQEILHGAVRFSNNPALCNVESIQWRDIVSSDFLSNMSMDFQNHLGSCQKCDPSCPNGSCWGAGEENCQKLTKIICAQQCSGRCRGKSPSDCCHNQCAAGCTGPRESDCLVCRKFRDEATCKDTCPPLMLYNPTTYQMDVNPEGKYSFGATCVKKCPRNYVVTDHGSCVRACGADSYEMEEDGVRKCKKCEGPCRKVCNGIGIGEFKDSLSINATNIKHFKNCTSISGDLHILPVAFRGDSFTHTPPLDPQELDILKTVKEITGFLLIQAWPENRTDLHAFENLEIIRGRTKQHGQFSLAVVSLNITSLGLRSLKEISDGDVIISGNKNLCYANTINWKKLFGTSGQKTKIISNRGENSCKATGQVCHALCSPEGCWGPEPRDCVSCRNVSRGRECVDKCNLLEGEPREFVENSECIQCHPECLPQAMNITCTGRGPDNCIQCAHYIDGPHCVKTCPAGVMGENNTLVWKYADAGHVCHLCHPNCTYGCTGPGLEGCPTNGPKIPSIATGMVGALLLLLVVALGIGLFMRRRHIVRKRTLRRLLQERELVEPLTPSGEAPNQALLRILKETEFKKIKVLGSGAFGTVYKGLWIPEGEKVKIPVAIKELREATSPKANKEILDEAYVMASVDNPHVCRLLGICLTSTVQLITQLMPFGCLLDYVREHKDNIGSQYLLNWCVQIAKGMNYLEDRRLVHRDLAARNVLVKTPQHVKITDFGLAKLLGAEEKEYHAEGGKVPIKWMALESILHRIYTHQSDVWSYGVTVWELMTFGSKPYDGIPASEISSILEKGERLPQPPICTIDVYMIMVKCWMIDADSRPKFRELIIEFSKMARDPQRYLVIQGDERMHLPSPTDSNFYRALMDEEDMDDVVDADEYLIPQQGFFSSPSTSRTPLLSSLSATSNNSTVACIDRNGLQSCPIKEDSFLQRYSSDPTGALTEDSIDDTFLPVPEYINQSVPKRPAGSVQNPVYHNQPLNPAPSRDPHYQDPHSTAVGNPEYLNTVQPTCVNSTFDSPAHWAQKGSHQISLDNPDYQQDFFPKEAKPNGIFKGSTAENAEYLRVAPQSSEFIGA

> <PDB ID(s) of Target Chain>
1IVO,1M14,1M17,1MOX,1XKK,1Z9I,2GS2,2GS6,2ITW,2ITX,2ITY,2J5E,2J5F,2J6M,2RF9,2RGP,3B2V,3BEL,3GOP,3POZ,3QWQ,3VJO,3W2O,3W2P,3W2Q,3W2R,3W2S,3W32,3W33,4G5J,4I23,4JQ7,4JQ8,4JR3,4JRV,4KRO,4LI5,4RJ4,4RJ5,4RJ6,4RJ7,4RJ8,4TKS,4UIP,4UV7,4WKQ,4WRG,4ZAU,5C8K,5C8M,5C8N,5CAL,5CAN,5CAO,5CAP,5CAQ,5CAS,5CAU,5CAV,5EDP,5EDQ,5EDR,5EM5,5EM6,5EM7,5EM8,5FED,5GNK,5HCX,5HCY,5HCZ,5HIB,5HIC,5UGB,5WB7,5WB8,5Y25,6S89,6S8A

> <UniProt (SwissProt) Recommended Name of Target Chain>
Epidermal growth factor receptor

> <UniProt (SwissProt) Entry Name of Target Chain>
EGFR_HUMAN

> <UniProt (SwissProt) Primary ID of Target Chain>
P00533

> <UniProt (SwissProt) Secondary ID(s) of Target Chain>
O00688,O00732,P06268,Q14225,Q68GS5,Q92795,Q9BZS2,Q9GZX1,Q9H2C9,Q9H3C9,Q9UMD7,Q9UMD8,Q9UMG5

> <UniProt (SwissProt) Alternative ID(s) of Target Chain>


> <UniProt (TrEMBL) Submitted Name of Target Chain>


> <UniProt (TrEMBL) Entry Name of Target Chain>


> <UniProt (TrEMBL) Primary ID of Target Chain>


> <UniProt (TrEMBL) Secondary ID(s) of Target Chain>


> <UniProt (TrEMBL) Alternative ID(s) of Target Chain>


> <training label>
4.4437

> <i_lp_mmshare_version>
54117

> <s_epik_input>
W0NIM11PYyhbY0hdMSljKE9bQ0gzXSlbY0hdYyhjMTIpbmMoQ2wpbmMyW05IXWMzW2NIXVtjSF1jKFtjSF1bY0hdMylOKFtDSDNdKVtDSDNd

> <s_epik_cmdline>
J2VwaWtfcHl0aG9uJywgJy1waHQnLCAnMC4xJywgJy1waCcsICc3LjQnLCAnLXRuJywgJzgnLCAnLW1hJywgJzIwMCcsICctaW1hZScsICc8aW5maWxlLm1hZT4nLCAnLW9tYWUnLCAnPG91dGZpbGUubWFlPic=

> <r_lp_tautomer_probability>
0.999978000241998

> <r_epik_Ionization_Penalty>
  0.0473

> <r_epik_Ionization_Penalty_Charging>
  0.0000

> <r_epik_Ionization_Penalty_Neutral>
  0.0473

> <r_epik_State_Penalty>
  0.0403

> <r_epik_Charging_Adjusted_Penalty>
0.0403064928835761

> <i_epik_Tot_Q>
0

> <i_epik_Tot_abs_Q>
0

> <i_f3d_flags>
0

> <s_lp_Force_Field>
OPLS_2005

> <r_lp_Energy>
23.843668

> <b_lp_Chiralities_Consistent>
1

> <s_lp_Variant>
BindingDB_50444630_mol_1-1

> <s_i_glide_gridfile>
struct_1_site_1

> <i_i_glide_lignum>
7

> <i_i_glide_rotatable_bonds>
5

> <r_i_docking_score>
-6.47023645550615

> <r_i_glide_ligand_efficiency>
-0.258809458220246

> <r_i_glide_ligand_efficiency_sa>
-0.756763445841285

> <r_i_glide_ligand_efficiency_ln>
-1.53363993729497

> <r_i_glide_gscore>
-6.51053645550615

> <r_i_glide_lipo>
-2.72069239795292

> <r_i_glide_hbond>
0

> <r_i_glide_metal>
0

> <r_i_glide_rewards>
-1.73842053608838

> <r_i_glide_evdw>
-39.9741554260254

> <r_i_glide_ecoul>
-2.33562278747559

> <r_i_glide_erotb>
0.29762766795776

> <r_i_glide_esite>
0

> <r_i_glide_emodel>
-37.6120610308279

> <r_i_glide_energy>
-42.309778213501

> <r_i_glide_einternal>
3.76003527641296

> <i_i_glide_confnum>
2

> <i_i_glide_posenum>
130

> <r_i_glide_eff_state_penalty>
0.0403

> <PMID>
24269511

> <r_glide_shape_similarity>
0.775957822799683

> <s_m_subgroup_title>
505 training

> <s_m_subgroupid>
pocket_pv

> <b_m_subgroup_collapsed>
0

$$$$
BindingDB_50223086_mol_1
                    3D
 Schrodinger Suite 2021-2.
 48 50  0  0  1  0            999 V2000
   25.6141    0.5279   53.7553 C   0  0  0  0  0  0
   25.8180   -0.3759   54.8318 C   0  0  0  0  0  0
   24.7534   -1.1845   55.2898 C   0  0  0  0  0  0
   24.3111    0.6546   53.2440 C   0  0  0  0  0  0
   23.2466   -0.1251   53.7561 C   0  0  0  0  0  0
   23.4640   -1.0583   54.7849 C   0  0  0  0  0  0
   22.4673   -1.8026   55.2939 N   0  0  0  0  0  0
   21.2726   -1.6509   54.7511 C   0  0  0  0  0  0
   20.9564   -0.8289   53.7752 N   0  0  0  0  0  0
   21.9265   -0.0489   53.2811 C   0  0  0  0  0  0
   21.6241    0.8409   52.2539 N   0  0  0  0  0  0
   20.4588    1.0155   51.5076 C   0  0  0  0  0  0
   19.1919    0.5965   51.9467 C   0  0  0  0  0  0
   18.0675    0.8301   51.1547 C   0  0  0  0  0  0
   18.1822    1.5184   49.9281 C   0  0  0  0  0  0
   19.4425    1.9532   49.4857 C   0  0  0  0  0  0
   20.5745    1.6867   50.2719 C   0  0  0  0  0  0
   16.7964    0.3566   51.6418 C   0  0  0  0  0  0
   15.7302   -0.0396   52.0715 C   0  0  0  0  0  0
   26.5721    1.3473   53.2025 O   0  0  0  0  0  0
   27.9391    0.9935   53.3359 C   0  0  0  0  0  0
   27.0191   -0.4478   55.4936 O   0  0  0  0  0  0
   26.9177   -0.2909   56.9100 C   0  0  0  0  0  0
   14.4295   -0.4933   52.5610 C   0  0  0  0  0  0
   14.5233   -1.8324   52.9746 O   0  0  0  0  0  0
   13.9761    0.3187   53.7637 C   0  0  0  0  0  0
   13.3845   -0.4310   51.4454 C   0  0  0  0  0  0
   24.9033   -1.9151   56.0703 H   0  0  0  0  0  0
   24.1535    1.3678   52.4490 H   0  0  0  0  0  0
   20.4719   -2.2551   55.1516 H   0  0  0  0  0  0
   22.4248    1.3437   51.9143 H   0  0  0  0  0  0
   19.0212    0.1241   52.8979 H   0  0  0  0  0  0
   17.3081    1.7050   49.3204 H   0  0  0  0  0  0
   19.5379    2.4747   48.5448 H   0  0  0  0  0  0
   21.5410    2.0225   49.9255 H   0  0  0  0  0  0
   28.5176    1.5439   52.5938 H   0  0  0  0  0  0
   28.3327    1.2654   54.3174 H   0  0  0  0  0  0
   28.1071   -0.0703   53.1507 H   0  0  0  0  0  0
   27.8896   -0.4130   57.3711 H   0  0  0  0  0  0
   26.5457    0.7026   57.1656 H   0  0  0  0  0  0
   26.2806   -1.0276   57.3971 H   0  0  0  0  0  0
   14.6617   -1.8413   53.9185 H   0  0  0  0  0  0
   13.9043    1.3840   53.5369 H   0  0  0  0  0  0
   14.6846    0.1962   54.5745 H   0  0  0  0  0  0
   13.0009   -0.0080   54.1278 H   0  0  0  0  0  0
   13.2450    0.5899   51.0857 H   0  0  0  0  0  0
   13.6699   -1.0466   50.5908 H   0  0  0  0  0  0
   12.4139   -0.7870   51.7925 H   0  0  0  0  0  0
  1  2  2  0  0  0
  1  4  1  0  0  0
  1 20  1  0  0  0
  2  3  1  0  0  0
  2 22  1  0  0  0
  3  6  2  0  0  0
  3 28  1  0  0  0
  4  5  2  0  0  0
  4 29  1  0  0  0
  5  6  1  0  0  0
  5 10  1  0  0  0
  6  7  1  0  0  0
  7  8  2  0  0  0
  8  9  1  0  0  0
  8 30  1  0  0  0
  9 10  2  0  0  0
 10 11  1  0  0  0
 11 12  1  0  0  0
 11 31  1  0  0  0
 12 13  2  0  0  0
 12 17  1  0  0  0
 13 14  1  0  0  0
 13 32  1  0  0  0
 14 15  2  0  0  0
 14 18  1  0  0  0
 15 16  1  0  0  0
 15 33  1  0  0  0
 16 17  2  0  0  0
 16 34  1  0  0  0
 17 35  1  0  0  0
 18 19  3  0  0  0
 19 24  1  0  0  0
 20 21  1  0  0  0
 21 36  1  0  0  0
 21 37  1  0  0  0
 21 38  1  0  0  0
 22 23  1  0  0  0
 23 39  1  0  0  0
 23 40  1  0  0  0
 23 41  1  0  0  0
 24 25  1  0  0  0
 24 26  1  0  0  0
 24 27  1  0  0  0
 25 42  1  0  0  0
 26 43  1  0  0  0
 26 44  1  0  0  0
 26 45  1  0  0  0
 27 46  1  0  0  0
 27 47  1  0  0  0
 27 48  1  0  0  0
M  END
> <s_m_entry_id>
413

> <s_m_entry_name>
pocket_pv.224

> <s_m_Source_Path>
/home/bortolaa/Project/GT/mario-master/docking/set505protein_struct_1_site_1_set505ligs_train

> <s_m_Source_File>
pocket_pv.maegz

> <i_m_Source_File_Index>
224

> <From>
www.bindingDB.org

> <BindingDB Reactant_set_id>
50401538

> <Ligand InChI>
InChI=1S/C21H21N3O3/c1-21(2,25)9-8-14-6-5-7-15(10-14)24-20-16-11-18(26-3)19(27-4)12-17(16)22-13-23-20/h5-7,10-13,25H,1-4H3,(H,22,23,24)

> <Ligand InChI Key>
GIPIRBPYCRHAIJ-UHFFFAOYSA-N

> <BindingDB MonomerID>
50223086

> <BindingDB Ligand Name>
4-(3-(6,7-dimethoxyquinazolin-4-ylamino)phenyl)-2-methylbut-3-yn-2-ol::CHEMBL248864

> <Target Name Assigned by Curator or DataSource>
Epidermal growth factor receptor

> <Target Source Organism According to Curator or DataSource>
Homo sapiens

> <Ki (nM)>


> <Kd (nM)>


> <EC50 (nM)>


> <kon (M-1-s-1)>


> <koff (s-1)>


> <pH>


> <Temp C>


> <Curation/DataSource>
ChEMBL

> <Article DOI>
10.1016/j.bmcl.2007.08.061

> <PubChem AID>


> <Patent Number>


> <Authors>
Liu, LT; Yuan, TT; Liu, HH; Chen, SF; Wu, YT

> <Institution>
Development Center for Biotechnology

> <Link to Ligand in BindingDB>
http://www.bindingdb.org/bind/chemsearch/marvin/MolStructure.jsp?monomerid=50223086

> <Link to Ligand-Target Pair in BindingDB>
http://www.bindingdb.org/jsp/dbsearch/PrimarySearch_ki.jsp?energyterm=kJ/mole&tag=r21&monomerid=50223086&enzyme=Epidermal+growth+factor+receptor&column=ki&startPg=0&Increment=50&submit=Search

> <Ligand HET ID in PDB>


> <PDB ID(s) for Ligand-Target Complex>


> <PubChem CID>
44442155

> <PubChem SID>
104095250

> <ChEBI ID of Ligand>


> <ChEMBL ID of Ligand>
CHEMBL248864

> <DrugBank ID of Ligand>


> <IUPHAR_GRAC ID of Ligand>


> <KEGG ID of Ligand>


> <ZINC ID of Ligand>
ZINC28951173

> <Number of Protein Chains in Target (>
1

> <BindingDB Target Chain Sequence>
MRPSGTAGAALLALLAALCPASRALEEKKVCQGTSNKLTQLGTFEDHFLSLQRMFNNCEVVLGNLEITYVQRNYDLSFLKTIQEVAGYVLIALNTVERIPLENLQIIRGNMYYENSYALAVLSNYDANKTGLKELPMRNLQEILHGAVRFSNNPALCNVESIQWRDIVSSDFLSNMSMDFQNHLGSCQKCDPSCPNGSCWGAGEENCQKLTKIICAQQCSGRCRGKSPSDCCHNQCAAGCTGPRESDCLVCRKFRDEATCKDTCPPLMLYNPTTYQMDVNPEGKYSFGATCVKKCPRNYVVTDHGSCVRACGADSYEMEEDGVRKCKKCEGPCRKVCNGIGIGEFKDSLSINATNIKHFKNCTSISGDLHILPVAFRGDSFTHTPPLDPQELDILKTVKEITGFLLIQAWPENRTDLHAFENLEIIRGRTKQHGQFSLAVVSLNITSLGLRSLKEISDGDVIISGNKNLCYANTINWKKLFGTSGQKTKIISNRGENSCKATGQVCHALCSPEGCWGPEPRDCVSCRNVSRGRECVDKCNLLEGEPREFVENSECIQCHPECLPQAMNITCTGRGPDNCIQCAHYIDGPHCVKTCPAGVMGENNTLVWKYADAGHVCHLCHPNCTYGCTGPGLEGCPTNGPKIPSIATGMVGALLLLLVVALGIGLFMRRRHIVRKRTLRRLLQERELVEPLTPSGEAPNQALLRILKETEFKKIKVLGSGAFGTVYKGLWIPEGEKVKIPVAIKELREATSPKANKEILDEAYVMASVDNPHVCRLLGICLTSTVQLITQLMPFGCLLDYVREHKDNIGSQYLLNWCVQIAKGMNYLEDRRLVHRDLAARNVLVKTPQHVKITDFGLAKLLGAEEKEYHAEGGKVPIKWMALESILHRIYTHQSDVWSYGVTVWELMTFGSKPYDGIPASEISSILEKGERLPQPPICTIDVYMIMVKCWMIDADSRPKFRELIIEFSKMARDPQRYLVIQGDERMHLPSPTDSNFYRALMDEEDMDDVVDADEYLIPQQGFFSSPSTSRTPLLSSLSATSNNSTVACIDRNGLQSCPIKEDSFLQRYSSDPTGALTEDSIDDTFLPVPEYINQSVPKRPAGSVQNPVYHNQPLNPAPSRDPHYQDPHSTAVGNPEYLNTVQPTCVNSTFDSPAHWAQKGSHQISLDNPDYQQDFFPKEAKPNGIFKGSTAENAEYLRVAPQSSEFIGA

> <PDB ID(s) of Target Chain>
1IVO,1M14,1M17,1MOX,1XKK,1Z9I,2GS2,2GS6,2ITW,2ITX,2ITY,2J5E,2J5F,2J6M,2RF9,2RGP,3B2V,3BEL,3GOP,3POZ,3QWQ,3VJO,3W2O,3W2P,3W2Q,3W2R,3W2S,3W32,3W33,4G5J,4I23,4JQ7,4JQ8,4JR3,4JRV,4KRO,4LI5,4RJ4,4RJ5,4RJ6,4RJ7,4RJ8,4TKS,4UIP,4UV7,4WKQ,4WRG,4ZAU,5C8K,5C8M,5C8N,5CAL,5CAN,5CAO,5CAP,5CAQ,5CAS,5CAU,5CAV,5EDP,5EDQ,5EDR,5EM5,5EM6,5EM7,5EM8,5FED,5GNK,5HCX,5HCY,5HCZ,5HIB,5HIC,5UGB,5WB7,5WB8,5Y25,6S89,6S8A

> <UniProt (SwissProt) Recommended Name of Target Chain>
Epidermal growth factor receptor

> <UniProt (SwissProt) Entry Name of Target Chain>
EGFR_HUMAN

> <UniProt (SwissProt) Primary ID of Target Chain>
P00533

> <UniProt (SwissProt) Secondary ID(s) of Target Chain>
O00688,O00732,P06268,Q14225,Q68GS5,Q92795,Q9BZS2,Q9GZX1,Q9H2C9,Q9H3C9,Q9UMD7,Q9UMD8,Q9UMG5

> <UniProt (SwissProt) Alternative ID(s) of Target Chain>


> <UniProt (TrEMBL) Submitted Name of Target Chain>


> <UniProt (TrEMBL) Entry Name of Target Chain>


> <UniProt (TrEMBL) Primary ID of Target Chain>


> <UniProt (TrEMBL) Secondary ID(s) of Target Chain>


> <UniProt (TrEMBL) Alternative ID(s) of Target Chain>


> <training label>
6.68613

> <i_lp_mmshare_version>
54117

> <s_epik_input>
W0NIM11PYyhbY0hdMSljKE9bQ0gzXSlbY0hdYyhjMTIpbltjSF1uYzJbTkhdYzNbY0hdYyhbY0hdW2NIXVtjSF0zKUMjQ0MoW09IXSkoW0NIM10pW0NIM10=

> <s_epik_cmdline>
J2VwaWtfcHl0aG9uJywgJy1waHQnLCAnMC4xJywgJy1waCcsICc3LjQnLCAnLXRuJywgJzgnLCAnLW1hJywgJzIwMCcsICctaW1hZScsICc8aW5maWxlLm1hZT4nLCAnLW9tYWUnLCAnPG91dGZpbGUubWFlPic=

> <r_lp_tautomer_probability>
1

> <r_epik_Ionization_Penalty>
  0.0006

> <r_epik_Ionization_Penalty_Charging>
  0.0000

> <r_epik_Ionization_Penalty_Neutral>
  0.0006

> <r_epik_State_Penalty>
  0.0000

> <r_epik_Charging_Adjusted_Penalty>
0

> <i_epik_Tot_Q>
0

> <i_epik_Tot_abs_Q>
0

> <i_f3d_flags>
0

> <s_lp_Force_Field>
OPLS_2005

> <r_lp_Energy>
18.82071

> <b_lp_Chiralities_Consistent>
1

> <s_lp_Variant>
BindingDB_50223086_mol_1-1

> <s_i_glide_gridfile>
struct_1_site_1

> <i_i_glide_lignum>
132

> <i_i_glide_rotatable_bonds>
7

> <r_i_docking_score>
-6.46479974929187

> <r_i_glide_ligand_efficiency>
-0.239437027751551

> <r_i_glide_ligand_efficiency_sa>
-0.718311082465507

> <r_i_glide_ligand_efficiency_ln>
-1.50489880108156

> <r_i_glide_gscore>
-6.46479974929187

> <r_i_glide_lipo>
-2.34569071388809

> <r_i_glide_hbond>
-0.728833980016946

> <r_i_glide_metal>
0

> <r_i_glide_rewards>
-1.1184195592434

> <r_i_glide_evdw>
-36.3588027954102

> <r_i_glide_ecoul>
-6.90557861328125

> <r_i_glide_erotb>
0.581921435619261

> <r_i_glide_esite>
0

> <r_i_glide_emodel>
-28.2704795607862

> <r_i_glide_energy>
-43.2643814086914

> <r_i_glide_einternal>
8.48787689208984

> <i_i_glide_confnum>
1

> <i_i_glide_posenum>
40

> <r_i_glide_eff_state_penalty>
0

> <IC50 (nM)>
206

> <PMID>
17889528

> <r_glide_shape_similarity>
0.71852046251297

> <s_m_subgroup_title>
505 training

> <s_m_subgroupid>
pocket_pv

> <b_m_subgroup_collapsed>
0

$$$$
/home/bortolaa/Project/GT/mario-master/ligands/set505ligs_train.sdf:29
                    3D
 Schrodinger Suite 2021-2.
 52 55  0  0  1  0            999 V2000
   25.4668   -0.8826   55.5741 N   0  0  0  0  0  0
   24.1986   -1.2781   55.6606 C   0  0  0  0  0  0
   23.2086   -0.9388   54.8415 N   0  0  0  0  0  0
   23.4945   -0.0634   53.8524 C   0  0  0  0  0  0
   25.8092   -0.0815   54.5502 C   0  0  0  0  0  0
   24.8224    0.4203   53.6624 C   0  0  0  0  0  0
   25.2073    1.3674   52.6823 C   0  0  0  0  0  0
   26.5629    1.7874   52.5728 C   0  0  0  0  0  0
   27.5487    1.2247   53.4100 C   0  0  0  0  0  0
   27.1601    0.2827   54.3843 C   0  0  0  0  0  0
   27.0020    2.7322   51.6632 O   0  0  0  0  0  0
   26.0350    3.5837   51.0506 C   0  0  0  0  0  0
   28.8447    1.6628   53.2572 O   0  0  0  0  0  0
   29.7648    1.3518   54.2948 C   0  0  0  0  0  0
   22.4623    0.3975   53.0266 N   0  0  0  0  0  0
   21.1063    0.0520   52.9465 C   0  0  0  0  0  0
   20.3609    0.7141   51.9425 C   0  0  0  0  0  0
   18.9954    0.4304   51.7642 C   0  0  0  0  0  0
   18.3628   -0.5231   52.5971 C   0  0  0  0  0  0
   19.1051   -1.1997   53.5863 C   0  0  0  0  0  0
   20.4650   -0.9089   53.7766 C   0  0  0  0  0  0
   16.9942   -0.8623   52.4984 N   0  0  0  0  0  0
   15.9734   -0.0135   52.3130 C   0  0  0  0  0  0
   16.0308    0.9932   51.6074 O   0  0  0  0  0  0
   14.8784   -0.4359   52.9724 N   0  0  0  0  0  0
   13.7217    0.3166   53.3018 C   0  0  0  0  0  0
   12.5431   -0.3923   53.6442 C   0  0  0  0  0  0
   11.3675    0.3015   54.0232 C   0  0  0  0  0  0
   11.3725    1.7155   54.0844 C   0  0  0  0  0  0
   12.5552    2.4307   53.7732 C   0  0  0  0  0  0
   13.7214    1.7370   53.3733 C   0  0  0  0  0  0
   12.5961    4.3336   53.9134 Br  0  0  0  0  0  0
   23.9551   -1.9386   56.4779 H   0  0  0  0  0  0
   24.4673    1.7776   52.0168 H   0  0  0  0  0  0
   27.8886   -0.1411   55.0556 H   0  0  0  0  0  0
   26.5468    4.3736   50.5043 H   0  0  0  0  0  0
   25.4266    3.0501   50.3231 H   0  0  0  0  0  0
   25.3849    4.0511   51.7931 H   0  0  0  0  0  0
   30.6883    1.9088   54.1751 H   0  0  0  0  0  0
   29.3703    1.6423   55.2691 H   0  0  0  0  0  0
   30.0076    0.2884   54.3116 H   0  0  0  0  0  0
   22.7534    1.0997   52.3637 H   0  0  0  0  0  0
   20.8248    1.4388   51.2863 H   0  0  0  0  0  0
   18.4480    0.9327   50.9826 H   0  0  0  0  0  0
   18.6236   -1.9209   54.2320 H   0  0  0  0  0  0
   20.9520   -1.4526   54.5640 H   0  0  0  0  0  0
   16.7433   -1.7020   52.9951 H   0  0  0  0  0  0
   14.9087   -1.3458   53.4112 H   0  0  0  0  0  0
   12.5312   -1.4721   53.6174 H   0  0  0  0  0  0
   10.4669   -0.2434   54.2766 H   0  0  0  0  0  0
   10.4775    2.2494   54.3761 H   0  0  0  0  0  0
   14.6094    2.3178   53.1578 H   0  0  0  0  0  0
  1  5  1  0  0  0
  1  2  2  0  0  0
  2  3  1  0  0  0
  2 33  1  0  0  0
  3  4  2  0  0  0
  4  6  1  0  0  0
  4 15  1  0  0  0
  5  6  2  0  0  0
  5 10  1  0  0  0
  6  7  1  0  0  0
  7  8  2  0  0  0
  7 34  1  0  0  0
  8  9  1  0  0  0
  8 11  1  0  0  0
  9 10  2  0  0  0
  9 13  1  0  0  0
 10 35  1  0  0  0
 11 12  1  0  0  0
 12 36  1  0  0  0
 12 37  1  0  0  0
 12 38  1  0  0  0
 13 14  1  0  0  0
 14 39  1  0  0  0
 14 40  1  0  0  0
 14 41  1  0  0  0
 15 16  1  0  0  0
 15 42  1  0  0  0
 16 17  2  0  0  0
 16 21  1  0  0  0
 17 18  1  0  0  0
 17 43  1  0  0  0
 18 19  2  0  0  0
 18 44  1  0  0  0
 19 20  1  0  0  0
 19 22  1  0  0  0
 20 21  2  0  0  0
 20 45  1  0  0  0
 21 46  1  0  0  0
 22 23  1  0  0  0
 22 47  1  0  0  0
 23 24  2  0  0  0
 23 25  1  0  0  0
 25 26  1  0  0  0
 25 48  1  0  0  0
 26 27  2  0  0  0
 26 31  1  0  0  0
 27 28  1  0  0  0
 27 49  1  0  0  0
 28 29  2  0  0  0
 28 50  1  0  0  0
 29 30  1  0  0  0
 29 51  1  0  0  0
 30 31  2  0  0  0
 30 32  1  0  0  0
 31 52  1  0  0  0
M  END
> <s_m_entry_id>
414

> <s_m_entry_name>
pocket_pv.225

> <s_m_Source_Path>
/home/bortolaa/Project/GT/mario-master/docking/set505protein_struct_1_site_1_set505ligs_train

> <s_m_Source_File>
pocket_pv.maegz

> <i_m_Source_File_Index>
225

> <From>
www.bindingDB.org

> <BindingDB Reactant_set_id>
50432899

> <Ligand InChI>
InChI=1S/C23H20BrN5O3/c1-31-20-11-18-19(12-21(20)32-2)25-13-26-22(18)27-15-6-8-16(9-7-15)28-23(30)29-17-5-3-4-14(24)10-17/h3-13H,1-2H3,(H,25,26,27)(H2,28,29,30)

> <Ligand InChI Key>
VCLVPTJGTKXMSP-UHFFFAOYSA-N

> <BindingDB MonomerID>
50129828

> <BindingDB Ligand Name>
CHEMBL3628796

> <Target Name Assigned by Curator or DataSource>
Epidermal growth factor receptor

> <Target Source Organism According to Curator or DataSource>
Homo sapiens

> <Ki (nM)>


> <IC50 (nM)>
7710

> <Kd (nM)>


> <EC50 (nM)>


> <kon (M-1-s-1)>


> <koff (s-1)>


> <pH>


> <Temp C>


> <Curation/DataSource>
ChEMBL

> <Article DOI>
10.1016/j.bmc.2015.10.035

> <PubChem AID>


> <Patent Number>


> <Authors>
Ravez, S; Arsenlis, S; Barczyk, A; Dupont, A; Frédérick, R; Hesse, S; Kirsch, G; Depreux, P; Goossens, L

> <Institution>
Univ. Lille

> <Link to Ligand in BindingDB>
http://www.bindingdb.org/bind/chemsearch/marvin/MolStructure.jsp?monomerid=50129828

> <Link to Ligand-Target Pair in BindingDB>
http://www.bindingdb.org/jsp/dbsearch/PrimarySearch_ki.jsp?energyterm=kJ/mole&tag=r21&monomerid=50129828&enzyme=Epidermal+growth+factor+receptor&column=ki&startPg=0&Increment=50&submit=Search

> <Ligand HET ID in PDB>


> <PDB ID(s) for Ligand-Target Complex>


> <PubChem CID>
122193762

> <PubChem SID>
321902968

> <ChEBI ID of Ligand>


> <ChEMBL ID of Ligand>
CHEMBL3628796

> <DrugBank ID of Ligand>


> <IUPHAR_GRAC ID of Ligand>


> <KEGG ID of Ligand>


> <ZINC ID of Ligand>


> <Number of Protein Chains in Target (>
1

> <BindingDB Target Chain Sequence>
MRPSGTAGAALLALLAALCPASRALEEKKVCQGTSNKLTQLGTFEDHFLSLQRMFNNCEVVLGNLEITYVQRNYDLSFLKTIQEVAGYVLIALNTVERIPLENLQIIRGNMYYENSYALAVLSNYDANKTGLKELPMRNLQEILHGAVRFSNNPALCNVESIQWRDIVSSDFLSNMSMDFQNHLGSCQKCDPSCPNGSCWGAGEENCQKLTKIICAQQCSGRCRGKSPSDCCHNQCAAGCTGPRESDCLVCRKFRDEATCKDTCPPLMLYNPTTYQMDVNPEGKYSFGATCVKKCPRNYVVTDHGSCVRACGADSYEMEEDGVRKCKKCEGPCRKVCNGIGIGEFKDSLSINATNIKHFKNCTSISGDLHILPVAFRGDSFTHTPPLDPQELDILKTVKEITGFLLIQAWPENRTDLHAFENLEIIRGRTKQHGQFSLAVVSLNITSLGLRSLKEISDGDVIISGNKNLCYANTINWKKLFGTSGQKTKIISNRGENSCKATGQVCHALCSPEGCWGPEPRDCVSCRNVSRGRECVDKCNLLEGEPREFVENSECIQCHPECLPQAMNITCTGRGPDNCIQCAHYIDGPHCVKTCPAGVMGENNTLVWKYADAGHVCHLCHPNCTYGCTGPGLEGCPTNGPKIPSIATGMVGALLLLLVVALGIGLFMRRRHIVRKRTLRRLLQERELVEPLTPSGEAPNQALLRILKETEFKKIKVLGSGAFGTVYKGLWIPEGEKVKIPVAIKELREATSPKANKEILDEAYVMASVDNPHVCRLLGICLTSTVQLITQLMPFGCLLDYVREHKDNIGSQYLLNWCVQIAKGMNYLEDRRLVHRDLAARNVLVKTPQHVKITDFGLAKLLGAEEKEYHAEGGKVPIKWMALESILHRIYTHQSDVWSYGVTVWELMTFGSKPYDGIPASEISSILEKGERLPQPPICTIDVYMIMVKCWMIDADSRPKFRELIIEFSKMARDPQRYLVIQGDERMHLPSPTDSNFYRALMDEEDMDDVVDADEYLIPQQGFFSSPSTSRTPLLSSLSATSNNSTVACIDRNGLQSCPIKEDSFLQRYSSDPTGALTEDSIDDTFLPVPEYINQSVPKRPAGSVQNPVYHNQPLNPAPSRDPHYQDPHSTAVGNPEYLNTVQPTCVNSTFDSPAHWAQKGSHQISLDNPDYQQDFFPKEAKPNGIFKGSTAENAEYLRVAPQSSEFIGA

> <PDB ID(s) of Target Chain>
1IVO,1M14,1M17,1MOX,1XKK,1Z9I,2GS2,2GS6,2ITW,2ITX,2ITY,2J5E,2J5F,2J6M,2RF9,2RGP,3B2V,3BEL,3GOP,3POZ,3QWQ,3VJO,3W2O,3W2P,3W2Q,3W2R,3W2S,3W32,3W33,4G5J,4I23,4JQ7,4JQ8,4JR3,4JRV,4KRO,4LI5,4RJ4,4RJ5,4RJ6,4RJ7,4RJ8,4TKS,4UIP,4UV7,4WKQ,4WRG,4ZAU,5C8K,5C8M,5C8N,5CAL,5CAN,5CAO,5CAP,5CAQ,5CAS,5CAU,5CAV,5EDP,5EDQ,5EDR,5EM5,5EM6,5EM7,5EM8,5FED,5GNK,5HCX,5HCY,5HCZ,5HIB,5HIC,5UGB,5WB7,5WB8,5Y25,6S89,6S8A

> <UniProt (SwissProt) Recommended Name of Target Chain>
Epidermal growth factor receptor

> <UniProt (SwissProt) Entry Name of Target Chain>
EGFR_HUMAN

> <UniProt (SwissProt) Primary ID of Target Chain>
P00533

> <UniProt (SwissProt) Secondary ID(s) of Target Chain>
O00688,O00732,P06268,Q14225,Q68GS5,Q92795,Q9BZS2,Q9GZX1,Q9H2C9,Q9H3C9,Q9UMD7,Q9UMD8,Q9UMG5

> <UniProt (SwissProt) Alternative ID(s) of Target Chain>


> <UniProt (TrEMBL) Submitted Name of Target Chain>


> <UniProt (TrEMBL) Entry Name of Target Chain>


> <UniProt (TrEMBL) Primary ID of Target Chain>


> <UniProt (TrEMBL) Secondary ID(s) of Target Chain>


> <UniProt (TrEMBL) Alternative ID(s) of Target Chain>


> <training label>
5.11295

> <i_lp_mmshare_version>
54117

> <s_epik_input>
W0NIM11PYyhbY0hdMSljKE9bQ0gzXSlbY0hdYyhjMTIpYyhuW2NIXW4yKVtOSF1jM1tjSF1bY0hdYyhbY0hdW2NIXTMpW05IXUMoPU8pW05IXWM0W2NIXVtjSF1bY0hdYyhCcilbY0hdNA==

> <s_epik_cmdline>
J2VwaWtfcHl0aG9uJywgJy1waHQnLCAnMC4xJywgJy1waCcsICc3LjQnLCAnLXRuJywgJzgnLCAnLW1hJywgJzIwMCcsICctaW1hZScsICc8aW5maWxlLm1hZT4nLCAnLW9tYWUnLCAnPG91dGZpbGUubWFlPic=

> <r_lp_tautomer_probability>
1

> <r_epik_Ionization_Penalty>
  0.0007

> <r_epik_Ionization_Penalty_Charging>
  0.0000

> <r_epik_Ionization_Penalty_Neutral>
  0.0007

> <r_epik_State_Penalty>
  0.0000

> <r_epik_Charging_Adjusted_Penalty>
0

> <i_epik_Tot_Q>
0

> <i_epik_Tot_abs_Q>
0

> <i_f3d_flags>
0

> <s_lp_Force_Field>
OPLS_2005

> <r_lp_Energy>
36.296061

> <b_lp_Chiralities_Consistent>
1

> <s_lp_Variant>
/home/bortolaa/Project/GT/mario-master/ligands/set505ligs_train.sdf:29-1

> <s_i_glide_gridfile>
struct_1_site_1

> <i_i_glide_lignum>
29

> <i_i_glide_rotatable_bonds>
8

> <r_i_docking_score>
-6.45830978349386

> <r_i_glide_ligand_efficiency>
-0.201822180734183

> <r_i_glide_ligand_efficiency_sa>
-0.640745483275699

> <r_i_glide_ligand_efficiency_ln>
-1.44619160740001

> <r_i_glide_gscore>
-6.45830978349386

> <r_i_glide_lipo>
-2.57816563255655

> <r_i_glide_hbond>
-0.304789422067012

> <r_i_glide_metal>
0

> <r_i_glide_rewards>
-0.584975408784041

> <r_i_glide_evdw>
-50.483341217041

> <r_i_glide_ecoul>
-5.79992723464966

> <r_i_glide_erotb>
0.416940814032667

> <r_i_glide_esite>
-0.0131639880694231

> <r_i_glide_emodel>
-37.0941428029028

> <r_i_glide_energy>
-56.2832684516907

> <r_i_glide_einternal>
4.53024244308472

> <i_i_glide_confnum>
1

> <i_i_glide_posenum>
72

> <r_i_glide_eff_state_penalty>
0

> <PMID>
26526740

> <r_glide_shape_similarity>
0.614688813686371

> <s_m_subgroup_title>
505 training

> <s_m_subgroupid>
pocket_pv

> <b_m_subgroup_collapsed>
0

$$$$
/home/bortolaa/Project/GT/mario-master/ligands/set505ligs_train.sdf:126
                    3D
 Schrodinger Suite 2021-2.
 58 60  0  0  1  0            999 V2000
   26.3543    3.2498   50.7458 C   0  0  0  0  0  0
   26.0570    4.6046   50.2802 C   0  0  0  0  0  0
   26.1055    4.9309   48.9746 C   0  0  0  0  0  0
   26.6890    2.3257   50.0039 O   0  0  0  0  0  0
   26.3097    3.1337   52.0942 N   0  0  0  0  0  0
   24.8773   -1.2631   55.3176 N   0  0  0  0  0  0
   23.5830   -1.6048   55.3538 C   0  0  0  0  0  0
   22.6133   -1.0947   54.5964 N   0  0  0  0  0  0
   22.9710   -0.0995   53.7522 C   0  0  0  0  0  0
   24.2984    0.3858   53.6694 C   0  0  0  0  0  0
   24.6798    1.4993   52.8757 C   0  0  0  0  0  0
   26.0251    1.9233   52.8065 C   0  0  0  0  0  0
   27.0237    1.1901   53.4929 C   0  0  0  0  0  0
   26.6067    0.1346   54.3552 C   0  0  0  0  0  0
   25.2593   -0.2776   54.4644 C   0  0  0  0  0  0
   28.3459    1.5342   53.2865 O   0  0  0  0  0  0
   29.3564    0.8453   54.0267 C   0  0  0  0  0  0
   29.7617   -0.5519   53.4809 C   0  0  0  0  0  0
   28.6440   -1.3792   53.1838 O   0  0  0  0  0  0
   28.9452   -2.7618   53.1641 C   0  0  0  0  0  0
   22.0415    0.4833   52.8917 N   0  0  0  0  0  0
   20.7037    0.2292   52.6162 C   0  0  0  0  0  0
   20.1889    0.9644   51.5330 C   0  0  0  0  0  0
   18.8206    0.9345   51.2065 C   0  0  0  0  0  0
   17.9498    0.1197   51.9990 C   0  0  0  0  0  0
   18.5061   -0.7102   53.0177 C   0  0  0  0  0  0
   19.8685   -0.6389   53.3497 C   0  0  0  0  0  0
   18.3377    1.8522   50.0589 C   0  0  0  0  0  0
   15.5607   -0.4090   52.4892 C   0  0  0  0  0  0
   14.3267    0.3553   52.5488 C   0  0  0  0  0  0
   13.3299   -0.0274   53.3675 C   0  0  0  0  0  0
   15.6901   -1.5590   52.9114 O   0  0  0  0  0  0
   16.5355    0.2759   51.8604 N   0  0  0  0  0  0
   19.3443    2.2275   49.2506 F   0  0  0  0  0  0
   17.4141    1.2446   49.3075 F   0  0  0  0  0  0
   17.7930    2.9572   50.5803 F   0  0  0  0  0  0
   25.8009    5.3741   50.9931 H   0  0  0  0  0  0
   25.8887    5.9383   48.6529 H   0  0  0  0  0  0
   26.3626    4.2093   48.2130 H   0  0  0  0  0  0
   26.2843    4.0133   52.6245 H   0  0  0  0  0  0
   23.3064   -2.3925   56.0385 H   0  0  0  0  0  0
   23.9485    2.0684   52.3219 H   0  0  0  0  0  0
   27.3164   -0.4176   54.9446 H   0  0  0  0  0  0
   30.2437    1.4800   54.0213 H   0  0  0  0  0  0
   29.0781    0.7916   55.0776 H   0  0  0  0  0  0
   30.3728   -0.4675   52.5831 H   0  0  0  0  0  0
   30.3881   -1.0253   54.2417 H   0  0  0  0  0  0
   28.1045   -3.3103   52.7382 H   0  0  0  0  0  0
   29.8274   -2.9739   52.5648 H   0  0  0  0  0  0
   29.1074   -3.1369   54.1738 H   0  0  0  0  0  0
   22.4499    1.1843   52.2942 H   0  0  0  0  0  0
   20.8475    1.6155   50.9770 H   0  0  0  0  0  0
   17.8975   -1.3316   53.6549 H   0  0  0  0  0  0
   20.2160   -1.2189   54.1882 H   0  0  0  0  0  0
   14.1984    1.2366   51.9383 H   0  0  0  0  0  0
   13.4139   -0.8988   54.0015 H   0  0  0  0  0  0
   12.4077    0.5320   53.4142 H   0  0  0  0  0  0
   16.2342    1.1063   51.3679 H   0  0  0  0  0  0
  1  2  1  0  0  0
  1  4  2  0  0  0
  1  5  1  0  0  0
  2  3  2  0  0  0
  2 37  1  0  0  0
  3 38  1  0  0  0
  3 39  1  0  0  0
  5 12  1  0  0  0
  5 40  1  0  0  0
  6  7  1  0  0  0
  6 15  2  0  0  0
  7  8  2  0  0  0
  7 41  1  0  0  0
  8  9  1  0  0  0
  9 10  2  0  0  0
  9 21  1  0  0  0
 10 11  1  0  0  0
 10 15  1  0  0  0
 11 12  2  0  0  0
 11 42  1  0  0  0
 12 13  1  0  0  0
 13 14  2  0  0  0
 13 16  1  0  0  0
 14 15  1  0  0  0
 14 43  1  0  0  0
 16 17  1  0  0  0
 17 18  1  0  0  0
 17 44  1  0  0  0
 17 45  1  0  0  0
 18 19  1  0  0  0
 18 46  1  0  0  0
 18 47  1  0  0  0
 19 20  1  0  0  0
 20 48  1  0  0  0
 20 49  1  0  0  0
 20 50  1  0  0  0
 21 22  1  0  0  0
 21 51  1  0  0  0
 22 23  1  0  0  0
 22 27  2  0  0  0
 23 24  2  0  0  0
 23 52  1  0  0  0
 24 25  1  0  0  0
 24 28  1  0  0  0
 25 26  2  0  0  0
 25 33  1  0  0  0
 26 27  1  0  0  0
 26 53  1  0  0  0
 27 54  1  0  0  0
 28 34  1  0  0  0
 28 35  1  0  0  0
 28 36  1  0  0  0
 29 30  1  0  0  0
 29 32  2  0  0  0
 29 33  1  0  0  0
 30 31  2  0  0  0
 30 55  1  0  0  0
 31 56  1  0  0  0
 31 57  1  0  0  0
 33 58  1  0  0  0
M  END
> <s_m_entry_id>
415

> <s_m_entry_name>
pocket_pv.226

> <s_m_Source_Path>
/home/bortolaa/Project/GT/mario-master/docking/set505protein_struct_1_site_1_set505ligs_train

> <s_m_Source_File>
pocket_pv.maegz

> <i_m_Source_File_Index>
226

> <From>
www.bindingDB.org

> <BindingDB Reactant_set_id>
50419192

> <Ligand InChI>
InChI=1S/C24H22F3N5O4/c1-4-21(33)31-17-7-6-14(10-16(17)24(25,26)27)30-23-15-11-19(32-22(34)5-2)20(36-9-8-35-3)12-18(15)28-13-29-23/h4-7,10-13H,1-2,8-9H2,3H3,(H,31,33)(H,32,34)(H,28,29,30)

> <Ligand InChI Key>
PAWXHHDPFDLOAD-UHFFFAOYSA-N

> <BindingDB MonomerID>
50123224

> <BindingDB Ligand Name>
CHEMBL3622619

> <Target Name Assigned by Curator or DataSource>
Epidermal growth factor receptor

> <Target Source Organism According to Curator or DataSource>
Homo sapiens

> <Ki (nM)>


> <Kd (nM)>


> <EC50 (nM)>


> <kon (M-1-s-1)>


> <koff (s-1)>


> <pH>


> <Temp C>


> <Curation/DataSource>
ChEMBL

> <Article DOI>
10.1016/j.ejmech.2015.08.026

> <PubChem AID>


> <Patent Number>


> <Authors>
Zhang, L; Yang, Y; Zhou, H; Zheng, Q; Li, Y; Zheng, S; Zhao, S; Chen, D; Fan, C

> <Institution>
Qilu Pharmaceutical Co, Ltd

> <Link to Ligand in BindingDB>
http://www.bindingdb.org/bind/chemsearch/marvin/MolStructure.jsp?monomerid=50123224

> <Link to Ligand-Target Pair in BindingDB>
http://www.bindingdb.org/jsp/dbsearch/PrimarySearch_ki.jsp?energyterm=kJ/mole&tag=r21&monomerid=50123224&enzyme=Epidermal+growth+factor+receptor&column=ki&startPg=0&Increment=50&submit=Search

> <Ligand HET ID in PDB>


> <PDB ID(s) for Ligand-Target Complex>


> <PubChem CID>
66556108

> <PubChem SID>
321901937

> <ChEBI ID of Ligand>


> <ChEMBL ID of Ligand>
CHEMBL3622619

> <DrugBank ID of Ligand>


> <IUPHAR_GRAC ID of Ligand>


> <KEGG ID of Ligand>


> <ZINC ID of Ligand>


> <Number of Protein Chains in Target (>
1

> <BindingDB Target Chain Sequence>
MRPSGTAGAALLALLAALCPASRALEEKKVCQGTSNKLTQLGTFEDHFLSLQRMFNNCEVVLGNLEITYVQRNYDLSFLKTIQEVAGYVLIALNTVERIPLENLQIIRGNMYYENSYALAVLSNYDANKTGLKELPMRNLQEILHGAVRFSNNPALCNVESIQWRDIVSSDFLSNMSMDFQNHLGSCQKCDPSCPNGSCWGAGEENCQKLTKIICAQQCSGRCRGKSPSDCCHNQCAAGCTGPRESDCLVCRKFRDEATCKDTCPPLMLYNPTTYQMDVNPEGKYSFGATCVKKCPRNYVVTDHGSCVRACGADSYEMEEDGVRKCKKCEGPCRKVCNGIGIGEFKDSLSINATNIKHFKNCTSISGDLHILPVAFRGDSFTHTPPLDPQELDILKTVKEITGFLLIQAWPENRTDLHAFENLEIIRGRTKQHGQFSLAVVSLNITSLGLRSLKEISDGDVIISGNKNLCYANTINWKKLFGTSGQKTKIISNRGENSCKATGQVCHALCSPEGCWGPEPRDCVSCRNVSRGRECVDKCNLLEGEPREFVENSECIQCHPECLPQAMNITCTGRGPDNCIQCAHYIDGPHCVKTCPAGVMGENNTLVWKYADAGHVCHLCHPNCTYGCTGPGLEGCPTNGPKIPSIATGMVGALLLLLVVALGIGLFMRRRHIVRKRTLRRLLQERELVEPLTPSGEAPNQALLRILKETEFKKIKVLGSGAFGTVYKGLWIPEGEKVKIPVAIKELREATSPKANKEILDEAYVMASVDNPHVCRLLGICLTSTVQLITQLMPFGCLLDYVREHKDNIGSQYLLNWCVQIAKGMNYLEDRRLVHRDLAARNVLVKTPQHVKITDFGLAKLLGAEEKEYHAEGGKVPIKWMALESILHRIYTHQSDVWSYGVTVWELMTFGSKPYDGIPASEISSILEKGERLPQPPICTIDVYMIMVKCWMIDADSRPKFRELIIEFSKMARDPQRYLVIQGDERMHLPSPTDSNFYRALMDEEDMDDVVDADEYLIPQQGFFSSPSTSRTPLLSSLSATSNNSTVACIDRNGLQSCPIKEDSFLQRYSSDPTGALTEDSIDDTFLPVPEYINQSVPKRPAGSVQNPVYHNQPLNPAPSRDPHYQDPHSTAVGNPEYLNTVQPTCVNSTFDSPAHWAQKGSHQISLDNPDYQQDFFPKEAKPNGIFKGSTAENAEYLRVAPQSSEFIGA

> <PDB ID(s) of Target Chain>
1IVO,1M14,1M17,1MOX,1XKK,1Z9I,2GS2,2GS6,2ITW,2ITX,2ITY,2J5E,2J5F,2J6M,2RF9,2RGP,3B2V,3BEL,3GOP,3POZ,3QWQ,3VJO,3W2O,3W2P,3W2Q,3W2R,3W2S,3W32,3W33,4G5J,4I23,4JQ7,4JQ8,4JR3,4JRV,4KRO,4LI5,4RJ4,4RJ5,4RJ6,4RJ7,4RJ8,4TKS,4UIP,4UV7,4WKQ,4WRG,4ZAU,5C8K,5C8M,5C8N,5CAL,5CAN,5CAO,5CAP,5CAQ,5CAS,5CAU,5CAV,5EDP,5EDQ,5EDR,5EM5,5EM6,5EM7,5EM8,5FED,5GNK,5HCX,5HCY,5HCZ,5HIB,5HIC,5UGB,5WB7,5WB8,5Y25,6S89,6S8A

> <UniProt (SwissProt) Recommended Name of Target Chain>
Epidermal growth factor receptor

> <UniProt (SwissProt) Entry Name of Target Chain>
EGFR_HUMAN

> <UniProt (SwissProt) Primary ID of Target Chain>
P00533

> <UniProt (SwissProt) Secondary ID(s) of Target Chain>
O00688,O00732,P06268,Q14225,Q68GS5,Q92795,Q9BZS2,Q9GZX1,Q9H2C9,Q9H3C9,Q9UMD7,Q9UMD8,Q9UMG5

> <UniProt (SwissProt) Alternative ID(s) of Target Chain>


> <UniProt (TrEMBL) Submitted Name of Target Chain>


> <UniProt (TrEMBL) Entry Name of Target Chain>


> <UniProt (TrEMBL) Primary ID of Target Chain>


> <UniProt (TrEMBL) Secondary ID(s) of Target Chain>


> <UniProt (TrEMBL) Alternative ID(s) of Target Chain>


> <training label>
6.9393

> <i_lp_mmshare_version>
54117

> <s_epik_input>
W0NIMl09W0NIXUMoPU8pW05IXWMoW2NIXTEpYyhPW0NIMl1bQ0gyXU9bQ0gzXSlbY0hdYyhjMTIpbltjSF1uYzJbTkhdYzNbY0hdYyhDKEYpKEYpRiljKFtjSF1bY0hdMylbTkhdQyg9TylbQ0hdPVtDSDJd

> <s_epik_cmdline>
J2VwaWtfcHl0aG9uJywgJy1waHQnLCAnMC4xJywgJy1waCcsICc3LjQnLCAnLXRuJywgJzgnLCAnLW1hJywgJzIwMCcsICctaW1hZScsICc8aW5maWxlLm1hZT4nLCAnLW9tYWUnLCAnPG91dGZpbGUubWFlPic=

> <r_lp_tautomer_probability>
1

> <r_epik_Ionization_Penalty>
  0.0016

> <r_epik_Ionization_Penalty_Charging>
  0.0000

> <r_epik_Ionization_Penalty_Neutral>
  0.0016

> <r_epik_State_Penalty>
  0.0000

> <r_epik_Charging_Adjusted_Penalty>
0

> <i_epik_Tot_Q>
0

> <i_epik_Tot_abs_Q>
0

> <i_f3d_flags>
0

> <s_lp_Force_Field>
OPLS_2005

> <r_lp_Energy>
32.771119

> <b_lp_Chiralities_Consistent>
1

> <s_lp_Variant>
/home/bortolaa/Project/GT/mario-master/ligands/set505ligs_train.sdf:126-1

> <s_i_glide_gridfile>
struct_1_site_1

> <i_i_glide_lignum>
148

> <i_i_glide_rotatable_bonds>
13

> <r_i_docking_score>
-6.416946053761

> <r_i_glide_ligand_efficiency>
-0.178248501493361

> <r_i_glide_ligand_efficiency_sa>
-0.588563583452521

> <r_i_glide_ligand_efficiency_ln>
-1.40000426308317

> <r_i_glide_gscore>
-6.416946053761

> <r_i_glide_lipo>
-2.93218699161738

> <r_i_glide_hbond>
-0.16

> <r_i_glide_metal>
0

> <r_i_glide_rewards>
-0.58895724645692

> <r_i_glide_evdw>
-50.8106384277344

> <r_i_glide_ecoul>
-5.90594148635864

> <r_i_glide_erotb>
0.893550772453167

> <r_i_glide_esite>
-0.202929443799357

> <r_i_glide_emodel>
-44.8127947125438

> <r_i_glide_energy>
-56.716579914093

> <r_i_glide_einternal>
8.16549110412598

> <i_i_glide_confnum>
485

> <i_i_glide_posenum>
259

> <r_i_glide_eff_state_penalty>
0

> <IC50 (nM)>
115

> <PMID>
26310890

> <r_glide_shape_similarity>
0.679298043251038

> <s_m_subgroup_title>
505 training

> <s_m_subgroupid>
pocket_pv

> <b_m_subgroup_collapsed>
0

$$$$
/home/bortolaa/Project/GT/mario-master/ligands/set505ligs_train.sdf:163
                    3D
 Schrodinger Suite 2021-2.
 77 81  0  0  1  0            999 V2000
   13.6648   -2.2116   52.4875 C   0  0  0  0  0  0
   12.6880   -1.3411   51.9391 C   0  0  0  0  0  0
   13.0817   -0.0468   51.5169 C   0  0  0  0  0  0
   15.0153   -1.7721   52.5747 C   0  0  0  0  0  0
   15.3858   -0.4732   52.1537 C   0  0  0  0  0  0
   14.4028    0.4097   51.6383 C   0  0  0  0  0  0
   14.7259    1.6548   51.2327 N   0  0  0  0  0  0
   16.0015    2.0177   51.3192 C   0  0  0  0  0  0
   16.9978    1.2656   51.7745 N   0  0  0  0  0  0
   16.7116    0.0134   52.1931 C   0  0  0  0  0  0
   17.7578   -0.7827   52.6925 N   0  0  0  0  0  0
   19.1188   -0.4679   52.7814 C   0  0  0  0  0  0
   19.7528    0.3343   51.8136 C   0  0  0  0  0  0
   21.0764    0.7242   51.9885 C   0  0  0  0  0  0
   21.8022    0.2683   53.1098 C   0  0  0  0  0  0
   21.2153   -0.6357   54.0280 C   0  0  0  0  0  0
   19.8711   -1.0043   53.8502 C   0  0  0  0  0  0
   23.0791    0.8201   53.2863 N   0  0  0  0  0  0
   24.1667    0.2233   53.7659 C   0  0  0  0  0  0
   25.2379    0.9468   53.4016 N   0  0  0  0  0  0
   24.1746   -0.7976   54.4571 O   0  0  0  0  0  0
   26.5778    0.5380   53.4267 C   0  0  0  0  0  0
   26.9432   -0.8212   53.2955 C   0  0  0  0  0  0
   28.2912   -1.2048   53.3740 C   0  0  0  0  0  0
   29.2669   -0.2085   53.5870 C   0  0  0  0  0  0
   28.9073    1.1580   53.6431 C   0  0  0  0  0  0
   27.5604    1.5376   53.5502 C   0  0  0  0  0  0
   13.2400   -3.4695   52.8811 O   0  0  0  0  0  0
   14.1979   -4.4001   53.3755 C   0  0  0  0  0  0
   11.3888   -1.8136   51.8378 O   0  0  0  0  0  0
   10.4841   -1.2141   50.9026 C   0  0  0  0  0  0
    9.4093   -0.3227   51.5702 C   0  0  0  0  0  0
    9.8941    1.0642   52.0580 C   0  0  0  0  0  0
   10.6889    1.0510   53.2979 N   0  0  0  0  0  0
    9.8918    0.7590   54.4927 C   0  0  0  0  0  0
   10.7702    0.7080   55.7645 C   0  0  0  0  0  0
   11.4889    1.9341   55.9243 O   0  0  0  0  0  0
   12.2857    2.2690   54.7805 C   0  0  0  0  0  0
   11.4019    2.3166   53.5122 C   0  0  0  0  0  0
   21.7726    1.7743   50.8026 Cl  0  0  0  0  0  0
   28.6585   -2.6758   53.2505 C   0  0  0  0  0  0
   30.7075   -0.5984   53.7748 C   0  0  0  0  0  0
   12.3717    0.6425   51.1007 H   0  0  0  0  0  0
   15.7687   -2.4325   52.9748 H   0  0  0  0  0  0
   16.2484    3.0191   50.9994 H   0  0  0  0  0  0
   17.4610   -1.5784   53.2360 H   0  0  0  0  0  0
   19.2304    0.6823   50.9374 H   0  0  0  0  0  0
   21.7525   -0.9923   54.8947 H   0  0  0  0  0  0
   19.4001   -1.6538   54.5747 H   0  0  0  0  0  0
   23.2497    1.6548   52.7457 H   0  0  0  0  0  0
   25.0805    1.8660   53.0142 H   0  0  0  0  0  0
   26.1912   -1.5818   53.1478 H   0  0  0  0  0  0
   29.6677    1.9141   53.7807 H   0  0  0  0  0  0
   27.2910    2.5830   53.6188 H   0  0  0  0  0  0
   13.7017   -5.3499   53.5767 H   0  0  0  0  0  0
   14.9834   -4.5889   52.6432 H   0  0  0  0  0  0
   14.6474   -4.0642   54.3105 H   0  0  0  0  0  0
    9.9703   -2.0484   50.4225 H   0  0  0  0  0  0
   10.9822   -0.6946   50.0840 H   0  0  0  0  0  0
    8.9091   -0.8732   52.3643 H   0  0  0  0  0  0
    8.6368   -0.1401   50.8237 H   0  0  0  0  0  0
    9.0269    1.7114   52.1779 H   0  0  0  0  0  0
   10.4604    1.5348   51.2566 H   0  0  0  0  0  0
    9.3755   -0.1945   54.3872 H   0  0  0  0  0  0
    9.1204    1.5228   54.6165 H   0  0  0  0  0  0
   10.1472    0.5441   56.6432 H   0  0  0  0  0  0
   11.4749   -0.1242   55.7115 H   0  0  0  0  0  0
   12.7574    3.2368   54.9473 H   0  0  0  0  0  0
   13.0864    1.5355   54.6593 H   0  0  0  0  0  0
   10.6894    3.1339   53.6060 H   0  0  0  0  0  0
   12.0226    2.5490   52.6467 H   0  0  0  0  0  0
   29.3754   -2.8536   52.4489 H   0  0  0  0  0  0
   29.0896   -3.0504   54.1746 H   0  0  0  0  0  0
   27.7760   -3.2826   53.0382 H   0  0  0  0  0  0
   30.8435   -1.1177   54.7212 H   0  0  0  0  0  0
   31.0258   -1.2638   52.9752 H   0  0  0  0  0  0
   31.3470    0.2890   53.7739 H   0  0  0  0  0  0
  1  2  2  0  0  0
  1  4  1  0  0  0
  1 28  1  0  0  0
  2  3  1  0  0  0
  2 30  1  0  0  0
  3  6  2  0  0  0
  3 43  1  0  0  0
  4  5  2  0  0  0
  4 44  1  0  0  0
  5  6  1  0  0  0
  5 10  1  0  0  0
  6  7  1  0  0  0
  7  8  2  0  0  0
  8  9  1  0  0  0
  8 45  1  0  0  0
  9 10  2  0  0  0
 10 11  1  0  0  0
 11 12  1  0  0  0
 11 46  1  0  0  0
 12 13  2  0  0  0
 12 17  1  0  0  0
 13 14  1  0  0  0
 13 47  1  0  0  0
 14 15  2  0  0  0
 14 40  1  0  0  0
 15 16  1  0  0  0
 15 18  1  0  0  0
 16 17  2  0  0  0
 16 48  1  0  0  0
 17 49  1  0  0  0
 18 19  1  0  0  0
 18 50  1  0  0  0
 19 20  1  0  0  0
 19 21  2  0  0  0
 20 22  1  0  0  0
 20 51  1  0  0  0
 22 23  2  0  0  0
 22 27  1  0  0  0
 23 24  1  0  0  0
 23 52  1  0  0  0
 24 25  2  0  0  0
 24 41  1  0  0  0
 25 26  1  0  0  0
 25 42  1  0  0  0
 26 27  2  0  0  0
 26 53  1  0  0  0
 27 54  1  0  0  0
 28 29  1  0  0  0
 29 55  1  0  0  0
 29 56  1  0  0  0
 29 57  1  0  0  0
 30 31  1  0  0  0
 31 32  1  0  0  0
 31 58  1  0  0  0
 31 59  1  0  0  0
 32 33  1  0  0  0
 32 60  1  0  0  0
 32 61  1  0  0  0
 33 34  1  0  0  0
 33 62  1  0  0  0
 33 63  1  0  0  0
 34 35  1  0  0  0
 34 39  1  0  0  0
 35 36  1  0  0  0
 35 64  1  0  0  0
 35 65  1  0  0  0
 36 37  1  0  0  0
 36 66  1  0  0  0
 36 67  1  0  0  0
 37 38  1  0  0  0
 38 39  1  0  0  0
 38 68  1  0  0  0
 38 69  1  0  0  0
 39 70  1  0  0  0
 39 71  1  0  0  0
 41 72  1  0  0  0
 41 73  1  0  0  0
 41 74  1  0  0  0
 42 75  1  0  0  0
 42 76  1  0  0  0
 42 77  1  0  0  0
M  END
> <s_m_entry_id>
416

> <s_m_entry_name>
pocket_pv.227

> <s_m_Source_Path>
/home/bortolaa/Project/GT/mario-master/docking/set505protein_struct_1_site_1_set505ligs_train

> <s_m_Source_File>
pocket_pv.maegz

> <i_m_Source_File_Index>
227

> <From>
www.bindingDB.org

> <BindingDB Reactant_set_id>
50553206

> <Ligand InChI>
InChI=1S/C31H35ClN6O4/c1-20-5-6-22(15-21(20)2)36-31(39)37-26-8-7-23(16-25(26)32)35-30-24-17-28(40-3)29(18-27(24)33-19-34-30)42-12-4-9-38-10-13-41-14-11-38/h5-8,15-19H,4,9-14H2,1-3H3,(H,33,34,35)(H2,36,37,39)

> <Ligand InChI Key>
NQDPHKGACCXMEJ-UHFFFAOYSA-N

> <BindingDB MonomerID>
50210748

> <BindingDB Ligand Name>
CHEMBL3920551

> <Target Name Assigned by Curator or DataSource>
Epidermal growth factor receptor

> <Target Source Organism According to Curator or DataSource>
Homo sapiens

> <Ki (nM)>


> <Kd (nM)>


> <EC50 (nM)>


> <kon (M-1-s-1)>


> <koff (s-1)>


> <pH>


> <Temp C>


> <Curation/DataSource>
ChEMBL

> <Article DOI>
10.1016/j.ejmech.2016.09.039

> <PubChem AID>


> <Patent Number>


> <Authors>
Zhang, HQ; Gong, FH; Ye, JQ; Zhang, C; Yue, XH; Li, CG; Xu, YG; Sun, LP

> <Institution>
China Pharmaceutical University

> <Link to Ligand in BindingDB>
http://www.bindingdb.org/bind/chemsearch/marvin/MolStructure.jsp?monomerid=50210748

> <Link to Ligand-Target Pair in BindingDB>
http://www.bindingdb.org/jsp/dbsearch/PrimarySearch_ki.jsp?energyterm=kJ/mole&tag=r21&monomerid=50210748&enzyme=Epidermal+growth+factor+receptor&column=ki&startPg=0&Increment=50&submit=Search

> <Ligand HET ID in PDB>


> <PDB ID(s) for Ligand-Target Complex>


> <PubChem CID>
134140064

> <PubChem SID>
375982715

> <ChEBI ID of Ligand>


> <ChEMBL ID of Ligand>
CHEMBL3920551

> <DrugBank ID of Ligand>


> <IUPHAR_GRAC ID of Ligand>


> <KEGG ID of Ligand>


> <ZINC ID of Ligand>


> <Number of Protein Chains in Target (>
1

> <BindingDB Target Chain Sequence>
MRPSGTAGAALLALLAALCPASRALEEKKVCQGTSNKLTQLGTFEDHFLSLQRMFNNCEVVLGNLEITYVQRNYDLSFLKTIQEVAGYVLIALNTVERIPLENLQIIRGNMYYENSYALAVLSNYDANKTGLKELPMRNLQEILHGAVRFSNNPALCNVESIQWRDIVSSDFLSNMSMDFQNHLGSCQKCDPSCPNGSCWGAGEENCQKLTKIICAQQCSGRCRGKSPSDCCHNQCAAGCTGPRESDCLVCRKFRDEATCKDTCPPLMLYNPTTYQMDVNPEGKYSFGATCVKKCPRNYVVTDHGSCVRACGADSYEMEEDGVRKCKKCEGPCRKVCNGIGIGEFKDSLSINATNIKHFKNCTSISGDLHILPVAFRGDSFTHTPPLDPQELDILKTVKEITGFLLIQAWPENRTDLHAFENLEIIRGRTKQHGQFSLAVVSLNITSLGLRSLKEISDGDVIISGNKNLCYANTINWKKLFGTSGQKTKIISNRGENSCKATGQVCHALCSPEGCWGPEPRDCVSCRNVSRGRECVDKCNLLEGEPREFVENSECIQCHPECLPQAMNITCTGRGPDNCIQCAHYIDGPHCVKTCPAGVMGENNTLVWKYADAGHVCHLCHPNCTYGCTGPGLEGCPTNGPKIPSIATGMVGALLLLLVVALGIGLFMRRRHIVRKRTLRRLLQERELVEPLTPSGEAPNQALLRILKETEFKKIKVLGSGAFGTVYKGLWIPEGEKVKIPVAIKELREATSPKANKEILDEAYVMASVDNPHVCRLLGICLTSTVQLITQLMPFGCLLDYVREHKDNIGSQYLLNWCVQIAKGMNYLEDRRLVHRDLAARNVLVKTPQHVKITDFGLAKLLGAEEKEYHAEGGKVPIKWMALESILHRIYTHQSDVWSYGVTVWELMTFGSKPYDGIPASEISSILEKGERLPQPPICTIDVYMIMVKCWMIDADSRPKFRELIIEFSKMARDPQRYLVIQGDERMHLPSPTDSNFYRALMDEEDMDDVVDADEYLIPQQGFFSSPSTSRTPLLSSLSATSNNSTVACIDRNGLQSCPIKEDSFLQRYSSDPTGALTEDSIDDTFLPVPEYINQSVPKRPAGSVQNPVYHNQPLNPAPSRDPHYQDPHSTAVGNPEYLNTVQPTCVNSTFDSPAHWAQKGSHQISLDNPDYQQDFFPKEAKPNGIFKGSTAENAEYLRVAPQSSEFIGA

> <PDB ID(s) of Target Chain>
1IVO,1M14,1M17,1MOX,1XKK,1Z9I,2GS2,2GS6,2ITW,2ITX,2ITY,2J5E,2J5F,2J6M,2RF9,2RGP,3B2V,3BEL,3GOP,3POZ,3QWQ,3VJO,3W2O,3W2P,3W2Q,3W2R,3W2S,3W32,3W33,4G5J,4I23,4JQ7,4JQ8,4JR3,4JRV,4KRO,4LI5,4RJ4,4RJ5,4RJ6,4RJ7,4RJ8,4TKS,4UIP,4UV7,4WKQ,4WRG,4ZAU,5C8K,5C8M,5C8N,5CAL,5CAN,5CAO,5CAP,5CAQ,5CAS,5CAU,5CAV,5EDP,5EDQ,5EDR,5EM5,5EM6,5EM7,5EM8,5FED,5GNK,5HCX,5HCY,5HCZ,5HIB,5HIC,5UGB,5WB7,5WB8,5Y25,6S89,6S8A

> <UniProt (SwissProt) Recommended Name of Target Chain>
Epidermal growth factor receptor

> <UniProt (SwissProt) Entry Name of Target Chain>
EGFR_HUMAN

> <UniProt (SwissProt) Primary ID of Target Chain>
P00533

> <UniProt (SwissProt) Secondary ID(s) of Target Chain>
O00688,O00732,P06268,Q14225,Q68GS5,Q92795,Q9BZS2,Q9GZX1,Q9H2C9,Q9H3C9,Q9UMD7,Q9UMD8,Q9UMG5

> <UniProt (SwissProt) Alternative ID(s) of Target Chain>


> <UniProt (TrEMBL) Submitted Name of Target Chain>


> <UniProt (TrEMBL) Entry Name of Target Chain>


> <UniProt (TrEMBL) Primary ID of Target Chain>


> <UniProt (TrEMBL) Secondary ID(s) of Target Chain>


> <UniProt (TrEMBL) Alternative ID(s) of Target Chain>


> <training label>
7.29243

> <i_lp_mmshare_version>
54117

> <s_epik_input>
W0NIMl0xW0NIMl1PW0NIMl1bQ0gyXU4xW0NIMl1bQ0gyXVtDSDJdT2MoYyhbY0hdMilPW0NIM10pW2NIXWMoYzIzKW5bY0hdbmMzW05IXWM0W2NIXWMoQ2wpYyhbY0hdW2NIXTQpW05IXUMoPU8pW05IXWM1W2NIXWMoW0NIM10pYyhbQ0gzXSlbY0hdW2NIXTU=

> <s_epik_cmdline>
J2VwaWtfcHl0aG9uJywgJy1waHQnLCAnMC4xJywgJy1waCcsICc3LjQnLCAnLXRuJywgJzgnLCAnLW1hJywgJzIwMCcsICctaW1hZScsICc8aW5maWxlLm1hZT4nLCAnLW9tYWUnLCAnPG91dGZpbGUubWFlPic=

> <r_lp_tautomer_probability>
0.999978000241998

> <r_epik_Ionization_Penalty>
  0.1970

> <r_epik_Ionization_Penalty_Charging>
  0.0000

> <r_epik_Ionization_Penalty_Neutral>
  0.1970

> <r_epik_State_Penalty>
  0.1860

> <r_epik_Charging_Adjusted_Penalty>
0.186024314191534

> <i_epik_Tot_Q>
0

> <i_epik_Tot_abs_Q>
0

> <i_f3d_flags>
0

> <s_lp_Force_Field>
OPLS_2005

> <r_lp_Energy>
59.794647

> <b_lp_Chiralities_Consistent>
1

> <s_lp_Variant>
/home/bortolaa/Project/GT/mario-master/ligands/set505ligs_train.sdf:163-1

> <s_i_glide_gridfile>
struct_1_site_1

> <i_i_glide_lignum>
187

> <i_i_glide_rotatable_bonds>
12

> <r_i_docking_score>
-6.40423958539874

> <r_i_glide_ligand_efficiency>
-0.152481894890446

> <r_i_glide_ligand_efficiency_sa>
-0.530031128841605

> <r_i_glide_ligand_efficiency_ln>
-1.35176998427324

> <r_i_glide_gscore>
-6.59023958539874

> <r_i_glide_lipo>
-3.48695909327803

> <r_i_glide_hbond>
0

> <r_i_glide_metal>
0

> <r_i_glide_rewards>
-0.231102551480582

> <r_i_glide_evdw>
-52.832893371582

> <r_i_glide_ecoul>
-4.8066782951355

> <r_i_glide_erotb>
0.4904684722093

> <r_i_glide_esite>
0

> <r_i_glide_emodel>
-29.8424995010752

> <r_i_glide_energy>
-57.6395716667175

> <r_i_glide_einternal>
5.8146538734436

> <i_i_glide_confnum>
297

> <i_i_glide_posenum>
223

> <r_i_glide_eff_state_penalty>
0.186

> <IC50 (nM)>
51

> <PMID>
27688180

> <r_glide_shape_similarity>
0.510650336742401

> <s_m_subgroup_title>
505 training

> <s_m_subgroupid>
pocket_pv

> <b_m_subgroup_collapsed>
0

$$$$
BindingDB_50117992
                    3D
 Schrodinger Suite 2021-2.
 50 53  0  0  1  0            999 V2000
   21.0853   -0.0342   53.1249 C   0  0  0  0  0  0
   22.4333    0.0454   53.5716 C   0  0  0  0  0  0
   20.2572   -0.9936   53.7739 C   0  0  0  0  0  0
   20.5648    0.7809   52.0836 C   0  0  0  0  0  0
   22.9180   -0.7891   54.5184 N   0  0  0  0  0  0
   18.9042   -1.0958   53.3699 C   0  0  0  0  0  0
   23.2710    1.0583   53.0750 N   0  0  0  0  0  0
   19.2136    0.6552   51.6657 C   0  0  0  0  0  0
   18.3818   -0.2943   52.3212 C   0  0  0  0  0  0
   20.7740   -1.8012   54.7321 N   0  0  0  0  0  0
   26.9644    0.3969   53.3640 C   0  0  0  0  0  0
   22.0690   -1.6672   55.0336 C   0  0  0  0  0  0
   27.8835   -0.7332   53.3921 C   0  0  0  0  0  0
   24.6581    1.2400   53.1927 C   0  0  0  0  0  0
   30.0631   -1.6645   53.7714 N   0  0  0  0  0  0
   28.3069   -3.0734   52.9646 N   0  0  0  0  0  0
   25.5638    0.1838   53.4225 C   0  0  0  0  0  0
   29.5415   -2.8275   53.3746 C   0  0  0  0  0  0
   18.6395    1.4086   50.6494 O   0  0  0  0  0  0
   17.0743   -0.4598   51.9059 O   0  0  0  0  0  0
   29.2365   -0.6073   53.7754 C   0  0  0  0  0  0
   27.4732   -2.0234   52.9741 C   0  0  0  0  0  0
   27.4718    1.6943   53.1575 C   0  0  0  0  0  0
   26.5731    2.7357   52.9221 C   0  0  0  0  0  0
   25.1795    2.5287   52.9470 C   0  0  0  0  0  0
   16.1058    0.1814   52.7304 C   0  0  0  0  0  0
   19.3495    2.5042   50.0589 C   0  0  0  0  0  0
   14.6928   -0.3392   52.4457 C   0  0  0  0  0  0
   20.2690    2.0370   48.9239 C   0  0  0  0  0  0
   21.2116    1.4880   51.5902 H   0  0  0  0  0  0
   18.2650   -1.8190   53.8534 H   0  0  0  0  0  0
   22.7930    1.7969   52.5785 H   0  0  0  0  0  0
   22.4675   -2.3407   55.7771 H   0  0  0  0  0  0
   25.1858   -0.8144   53.5619 H   0  0  0  0  0  0
   30.2086   -3.6651   53.4319 H   0  0  0  0  0  0
   29.6625    0.3269   54.1096 H   0  0  0  0  0  0
   26.4755   -2.2274   52.6164 H   0  0  0  0  0  0
   28.5297    1.8960   53.0800 H   0  0  0  0  0  0
   26.9691    3.6895   52.6470 H   0  0  0  0  0  0
   24.5230    3.3600   52.7330 H   0  0  0  0  0  0
   16.3364   -0.0158   53.7720 H   0  0  0  0  0  0
   16.1509    1.2592   52.5724 H   0  0  0  0  0  0
   19.8946    3.0812   50.8061 H   0  0  0  0  0  0
   18.6055    3.1865   49.6481 H   0  0  0  0  0  0
   13.9547    0.1773   53.0589 H   0  0  0  0  0  0
   14.4216   -0.2003   51.3981 H   0  0  0  0  0  0
   14.6357   -1.4035   52.6716 H   0  0  0  0  0  0
   20.7792    2.8842   48.4641 H   0  0  0  0  0  0
   19.6925    1.5339   48.1482 H   0  0  0  0  0  0
   21.0295    1.3403   49.2764 H   0  0  0  0  0  0
  1  2  1  0  0  0
  1  3  1  0  0  0
  1  4  2  0  0  0
  2  5  2  0  0  0
  2  7  1  0  0  0
  3  6  2  0  0  0
  3 10  1  0  0  0
  4  8  1  0  0  0
  4 30  1  0  0  0
  5 12  1  0  0  0
  6  9  1  0  0  0
  6 31  1  0  0  0
  7 14  1  0  0  0
  7 32  1  0  0  0
  8  9  2  0  0  0
  8 19  1  0  0  0
  9 20  1  0  0  0
 10 12  2  0  0  0
 11 13  1  0  0  0
 11 17  1  0  0  0
 11 23  2  0  0  0
 12 33  1  0  0  0
 13 21  2  0  0  0
 13 22  1  0  0  0
 14 17  2  0  0  0
 14 25  1  0  0  0
 15 18  2  0  0  0
 15 21  1  0  0  0
 16 18  1  0  0  0
 16 22  2  0  0  0
 17 34  1  0  0  0
 18 35  1  0  0  0
 19 27  1  0  0  0
 20 26  1  0  0  0
 21 36  1  0  0  0
 22 37  1  0  0  0
 23 24  1  0  0  0
 23 38  1  0  0  0
 24 25  2  0  0  0
 24 39  1  0  0  0
 25 40  1  0  0  0
 26 28  1  0  0  0
 26 41  1  0  0  0
 26 42  1  0  0  0
 27 29  1  0  0  0
 27 43  1  0  0  0
 27 44  1  0  0  0
 28 45  1  0  0  0
 28 46  1  0  0  0
 28 47  1  0  0  0
 29 48  1  0  0  0
 29 49  1  0  0  0
 29 50  1  0  0  0
M  END
> <s_m_entry_id>
417

> <s_m_entry_name>
pocket_pv.228

> <s_m_Source_Path>
/home/bortolaa/Project/GT/mario-master/docking/set505protein_struct_1_site_1_set505ligs_train

> <s_m_Source_File>
pocket_pv.maegz

> <i_m_Source_File_Index>
228

> <From>
www.bindingDB.org

> <BindingDB Reactant_set_id>
50212998

> <Ligand InChI>
InChI=1S/C22H21N5O2/c1-3-28-20-9-18-19(10-21(20)29-4-2)25-14-26-22(18)27-17-7-5-6-15(8-17)16-11-23-13-24-12-16/h5-14H,3-4H2,1-2H3,(H,25,26,27)

> <Ligand InChI Key>
OCPACVFCWMESLD-UHFFFAOYSA-N

> <BindingDB MonomerID>
50117992

> <BindingDB Ligand Name>
(6,7-Diethoxy-quinazolin-4-yl)-(3-pyrimidin-5-yl-phenyl)-amine::CHEMBL126974

> <Target Name Assigned by Curator or DataSource>
Epidermal growth factor receptor

> <Target Source Organism According to Curator or DataSource>
Homo sapiens

> <Ki (nM)>


> <IC50 (nM)>
1100

> <Kd (nM)>


> <EC50 (nM)>


> <kon (M-1-s-1)>


> <koff (s-1)>


> <pH>


> <Temp C>


> <Curation/DataSource>
ChEMBL

> <Article DOI>
10.1021/jm010496a

> <PubChem AID>


> <Patent Number>


> <Authors>
Wright, SW; Carlo, AA; Carty, MD; Danley, DE; Hageman, DL; Karam, GA; Levy, CB; Mansour, MN; Mathiowetz, AM; McClure, LD; Nestor, NB; McPherson, RK; Pandit, J; Pustilnik, LR; Schulte, GK; Soeller, WC; Treadway, JL; Wang, IK; Bauer, PH

> <Institution>
Pfizer Central Research

> <Link to Ligand in BindingDB>
http://www.bindingdb.org/bind/chemsearch/marvin/MolStructure.jsp?monomerid=50117992

> <Link to Ligand-Target Pair in BindingDB>
http://www.bindingdb.org/jsp/dbsearch/PrimarySearch_ki.jsp?energyterm=kJ/mole&tag=r21&monomerid=50117992&enzyme=Epidermal+growth+factor+receptor&column=ki&startPg=0&Increment=50&submit=Search

> <Ligand HET ID in PDB>


> <PDB ID(s) for Ligand-Target Complex>


> <PubChem CID>
10309491

> <PubChem SID>
104011396

> <ChEBI ID of Ligand>


> <ChEMBL ID of Ligand>
CHEMBL126974

> <DrugBank ID of Ligand>


> <IUPHAR_GRAC ID of Ligand>


> <KEGG ID of Ligand>


> <ZINC ID of Ligand>
ZINC13490803

> <Number of Protein Chains in Target (>
1

> <BindingDB Target Chain Sequence>
MRPSGTAGAALLALLAALCPASRALEEKKVCQGTSNKLTQLGTFEDHFLSLQRMFNNCEVVLGNLEITYVQRNYDLSFLKTIQEVAGYVLIALNTVERIPLENLQIIRGNMYYENSYALAVLSNYDANKTGLKELPMRNLQEILHGAVRFSNNPALCNVESIQWRDIVSSDFLSNMSMDFQNHLGSCQKCDPSCPNGSCWGAGEENCQKLTKIICAQQCSGRCRGKSPSDCCHNQCAAGCTGPRESDCLVCRKFRDEATCKDTCPPLMLYNPTTYQMDVNPEGKYSFGATCVKKCPRNYVVTDHGSCVRACGADSYEMEEDGVRKCKKCEGPCRKVCNGIGIGEFKDSLSINATNIKHFKNCTSISGDLHILPVAFRGDSFTHTPPLDPQELDILKTVKEITGFLLIQAWPENRTDLHAFENLEIIRGRTKQHGQFSLAVVSLNITSLGLRSLKEISDGDVIISGNKNLCYANTINWKKLFGTSGQKTKIISNRGENSCKATGQVCHALCSPEGCWGPEPRDCVSCRNVSRGRECVDKCNLLEGEPREFVENSECIQCHPECLPQAMNITCTGRGPDNCIQCAHYIDGPHCVKTCPAGVMGENNTLVWKYADAGHVCHLCHPNCTYGCTGPGLEGCPTNGPKIPSIATGMVGALLLLLVVALGIGLFMRRRHIVRKRTLRRLLQERELVEPLTPSGEAPNQALLRILKETEFKKIKVLGSGAFGTVYKGLWIPEGEKVKIPVAIKELREATSPKANKEILDEAYVMASVDNPHVCRLLGICLTSTVQLITQLMPFGCLLDYVREHKDNIGSQYLLNWCVQIAKGMNYLEDRRLVHRDLAARNVLVKTPQHVKITDFGLAKLLGAEEKEYHAEGGKVPIKWMALESILHRIYTHQSDVWSYGVTVWELMTFGSKPYDGIPASEISSILEKGERLPQPPICTIDVYMIMVKCWMIDADSRPKFRELIIEFSKMARDPQRYLVIQGDERMHLPSPTDSNFYRALMDEEDMDDVVDADEYLIPQQGFFSSPSTSRTPLLSSLSATSNNSTVACIDRNGLQSCPIKEDSFLQRYSSDPTGALTEDSIDDTFLPVPEYINQSVPKRPAGSVQNPVYHNQPLNPAPSRDPHYQDPHSTAVGNPEYLNTVQPTCVNSTFDSPAHWAQKGSHQISLDNPDYQQDFFPKEAKPNGIFKGSTAENAEYLRVAPQSSEFIGA

> <PDB ID(s) of Target Chain>
1IVO,1M14,1M17,1MOX,1XKK,1Z9I,2GS2,2GS6,2ITW,2ITX,2ITY,2J5E,2J5F,2J6M,2RF9,2RGP,3B2V,3BEL,3GOP,3POZ,3QWQ,3VJO,3W2O,3W2P,3W2Q,3W2R,3W2S,3W32,3W33,4G5J,4I23,4JQ7,4JQ8,4JR3,4JRV,4KRO,4LI5,4RJ4,4RJ5,4RJ6,4RJ7,4RJ8,4TKS,4UIP,4UV7,4WKQ,4WRG,4ZAU,5C8K,5C8M,5C8N,5CAL,5CAN,5CAO,5CAP,5CAQ,5CAS,5CAU,5CAV,5EDP,5EDQ,5EDR,5EM5,5EM6,5EM7,5EM8,5FED,5GNK,5HCX,5HCY,5HCZ,5HIB,5HIC,5UGB,5WB7,5WB8,5Y25,6S89,6S8A

> <UniProt (SwissProt) Recommended Name of Target Chain>
Epidermal growth factor receptor

> <UniProt (SwissProt) Entry Name of Target Chain>
EGFR_HUMAN

> <UniProt (SwissProt) Primary ID of Target Chain>
P00533

> <UniProt (SwissProt) Secondary ID(s) of Target Chain>
O00688,O00732,P06268,Q14225,Q68GS5,Q92795,Q9BZS2,Q9GZX1,Q9H2C9,Q9H3C9,Q9UMD7,Q9UMD8,Q9UMG5

> <UniProt (SwissProt) Alternative ID(s) of Target Chain>


> <UniProt (TrEMBL) Submitted Name of Target Chain>


> <UniProt (TrEMBL) Entry Name of Target Chain>


> <UniProt (TrEMBL) Primary ID of Target Chain>


> <UniProt (TrEMBL) Secondary ID(s) of Target Chain>


> <UniProt (TrEMBL) Alternative ID(s) of Target Chain>


> <training label>
5.95861

> <i_lp_mmshare_version>
54117

> <s_epik_input>
W0NIM11bQ0gyXU9jKFtjSF0xKWMoT1tDSDJdW0NIM10pW2NIXWMoYzEyKW5bY0hdbmMyW05IXWMoW2NIXVtjSF1bY0hdMylbY0hdYzMtYzRbY0hdbltjSF1uW2NIXTQ=

> <s_epik_cmdline>
J2VwaWtfcHl0aG9uJywgJy1waHQnLCAnMC4xJywgJy1waCcsICc3LjQnLCAnLXRuJywgJzgnLCAnLW1hJywgJzIwMCcsICctaW1hZScsICc8aW5maWxlLm1hZT4nLCAnLW9tYWUnLCAnPG91dGZpbGUubWFlPic=

> <r_lp_tautomer_probability>
1

> <r_epik_Ionization_Penalty>
  0.0005

> <r_epik_Ionization_Penalty_Charging>
  0.0000

> <r_epik_Ionization_Penalty_Neutral>
  0.0005

> <r_epik_State_Penalty>
  0.0000

> <r_epik_Charging_Adjusted_Penalty>
0

> <i_epik_Tot_Q>
0

> <i_epik_Tot_abs_Q>
0

> <i_f3d_flags>
0

> <s_lp_Force_Field>
OPLS_2005

> <r_lp_Energy>
26.361624

> <b_lp_Chiralities_Consistent>
1

> <s_lp_Variant>
BindingDB_50117992-1

> <s_i_glide_gridfile>
struct_1_site_1

> <i_i_glide_lignum>
65

> <i_i_glide_rotatable_bonds>
7

> <r_i_docking_score>
-6.3856179507905

> <r_i_glide_ligand_efficiency>
-0.220193722441052

> <r_i_glide_ligand_efficiency_sa>
-0.676504877606712

> <r_i_glide_ligand_efficiency_ln>
-1.46214458543109

> <r_i_glide_gscore>
-6.3856179507905

> <r_i_glide_lipo>
-3.05722211423342

> <r_i_glide_hbond>
-0.152717050317754

> <r_i_glide_metal>
0

> <r_i_glide_rewards>
-1.56704124456844

> <r_i_glide_evdw>
-42.4458961486816

> <r_i_glide_ecoul>
-0.900063395500183

> <r_i_glide_erotb>
0.648666775088221

> <r_i_glide_esite>
0

> <r_i_glide_emodel>
-43.0000155282492

> <r_i_glide_energy>
-43.3459595441818

> <r_i_glide_einternal>
1.56523001194

> <i_i_glide_confnum>
13

> <i_i_glide_posenum>
22

> <r_i_glide_eff_state_penalty>
0

> <PMID>
12190310

> <r_glide_shape_similarity>
0.823232293128967

> <s_m_subgroup_title>
505 training

> <s_m_subgroupid>
pocket_pv

> <b_m_subgroup_collapsed>
0

$$$$
/home/bortolaa/Project/GT/mario-master/ligands/set505ligs_train.sdf:3
                    3D
 Schrodinger Suite 2021-2.
 58 61  0  0  1  0            999 V2000
   23.4764   -0.0986   53.8569 C   0  0  0  0  0  0
   24.7906    0.4101   53.6490 C   0  0  0  0  0  0
   25.7987   -0.0699   54.5228 C   0  0  0  0  0  0
   25.4762   -0.8690   55.5592 N   0  0  0  0  0  0
   24.2139   -1.2878   55.6648 C   0  0  0  0  0  0
   23.2119   -0.9769   54.8510 N   0  0  0  0  0  0
   27.1426    0.3069   54.3238 C   0  0  0  0  0  0
   27.4736    1.2634   53.3396 C   0  0  0  0  0  0
   26.4654    1.8041   52.5174 C   0  0  0  0  0  0
   25.1231    1.3593   52.6537 C   0  0  0  0  0  0
   26.8632    2.7344   51.5866 O   0  0  0  0  0  0
   25.8870    3.6464   51.0774 C   0  0  0  0  0  0
   28.7554    1.7360   53.1442 O   0  0  0  0  0  0
   29.6319    1.7370   54.2619 C   0  0  0  0  0  0
   22.4407    0.3397   53.0205 N   0  0  0  0  0  0
   21.0846   -0.0070   52.9466 C   0  0  0  0  0  0
   20.4503   -0.9643   53.7798 C   0  0  0  0  0  0
   19.0820   -1.2156   53.6293 C   0  0  0  0  0  0
   18.3170   -0.5223   52.6670 C   0  0  0  0  0  0
   18.9440    0.4139   51.8115 C   0  0  0  0  0  0
   20.3245    0.6684   51.9577 C   0  0  0  0  0  0
   16.9276   -0.8078   52.6704 N   0  0  0  0  0  0
   15.9204   -0.0470   52.2067 C   0  0  0  0  0  0
   14.8332   -0.2039   52.9771 N   0  0  0  0  0  0
   15.9630    0.6585   51.2055 O   0  0  0  0  0  0
   13.5068    0.3514   52.7337 C   0  0  0  0  0  0
   12.4706   -0.4819   53.5333 C   0  0  0  0  0  0
   11.0371    0.0799   53.3925 C   0  0  0  0  0  0
   10.9633    1.5637   53.8084 C   0  0  0  0  0  0
   11.9949    2.4216   53.0258 C   0  0  0  0  0  0
   13.4401    1.8543   53.1398 C   0  0  0  0  0  0
   23.9716   -1.9478   56.4863 H   0  0  0  0  0  0
   27.9124   -0.1069   54.9646 H   0  0  0  0  0  0
   24.3544    1.7516   52.0043 H   0  0  0  0  0  0
   26.3860    4.4819   50.5891 H   0  0  0  0  0  0
   25.2528    3.1696   50.3360 H   0  0  0  0  0  0
   25.2670    4.0586   51.8767 H   0  0  0  0  0  0
   30.2864    2.5995   54.1795 H   0  0  0  0  0  0
   29.1135    1.8424   55.2180 H   0  0  0  0  0  0
   30.2610    0.8442   54.2639 H   0  0  0  0  0  0
   22.7344    1.0321   52.3490 H   0  0  0  0  0  0
   20.9540   -1.5350   54.5402 H   0  0  0  0  0  0
   18.6145   -1.9390   54.2769 H   0  0  0  0  0  0
   18.3884    0.9617   51.0604 H   0  0  0  0  0  0
   20.7850    1.4027   51.3173 H   0  0  0  0  0  0
   16.6434   -1.4996   53.3517 H   0  0  0  0  0  0
   14.9128   -0.7668   53.8165 H   0  0  0  0  0  0
   13.2807    0.2607   51.6718 H   0  0  0  0  0  0
   12.7416   -0.4862   54.5935 H   0  0  0  0  0  0
   12.4961   -1.5234   53.2140 H   0  0  0  0  0  0
   10.3416   -0.5105   53.9914 H   0  0  0  0  0  0
   10.7166   -0.0148   52.3483 H   0  0  0  0  0  0
   11.1506    1.6589   54.8837 H   0  0  0  0  0  0
    9.9483    1.9199   53.6417 H   0  0  0  0  0  0
   11.9705    3.4569   53.3819 H   0  0  0  0  0  0
   11.7036    2.4545   51.9690 H   0  0  0  0  0  0
   14.1199    2.4492   52.5226 H   0  0  0  0  0  0
   13.7805    1.9698   54.1743 H   0  0  0  0  0  0
  1  2  2  0  0  0
  1  6  1  0  0  0
  1 15  1  0  0  0
  2 10  1  0  0  0
  2  3  1  0  0  0
  3  4  2  0  0  0
  3  7  1  0  0  0
  4  5  1  0  0  0
  5  6  2  0  0  0
  5 32  1  0  0  0
  7  8  2  0  0  0
  7 33  1  0  0  0
  8  9  1  0  0  0
  8 13  1  0  0  0
  9 10  2  0  0  0
  9 11  1  0  0  0
 10 34  1  0  0  0
 11 12  1  0  0  0
 12 35  1  0  0  0
 12 36  1  0  0  0
 12 37  1  0  0  0
 13 14  1  0  0  0
 14 38  1  0  0  0
 14 39  1  0  0  0
 14 40  1  0  0  0
 15 16  1  0  0  0
 15 41  1  0  0  0
 16 17  2  0  0  0
 16 21  1  0  0  0
 17 18  1  0  0  0
 17 42  1  0  0  0
 18 19  2  0  0  0
 18 43  1  0  0  0
 19 20  1  0  0  0
 19 22  1  0  0  0
 20 21  2  0  0  0
 20 44  1  0  0  0
 21 45  1  0  0  0
 22 23  1  0  0  0
 22 46  1  0  0  0
 23 24  1  0  0  0
 23 25  2  0  0  0
 24 26  1  0  0  0
 24 47  1  0  0  0
 26 27  1  0  0  0
 26 31  1  0  0  0
 26 48  1  0  0  0
 27 28  1  0  0  0
 27 49  1  0  0  0
 27 50  1  0  0  0
 28 29  1  0  0  0
 28 51  1  0  0  0
 28 52  1  0  0  0
 29 30  1  0  0  0
 29 53  1  0  0  0
 29 54  1  0  0  0
 30 31  1  0  0  0
 30 55  1  0  0  0
 30 56  1  0  0  0
 31 57  1  0  0  0
 31 58  1  0  0  0
M  END
> <s_m_entry_id>
418

> <s_m_entry_name>
pocket_pv.229

> <s_m_Source_Path>
/home/bortolaa/Project/GT/mario-master/docking/set505protein_struct_1_site_1_set505ligs_train

> <s_m_Source_File>
pocket_pv.maegz

> <i_m_Source_File_Index>
229

> <From>
www.bindingDB.org

> <BindingDB Reactant_set_id>
406603

> <Ligand InChI>
InChI=1S/C23H27N5O3/c1-30-20-12-18-19(13-21(20)31-2)24-14-25-22(18)26-16-8-10-17(11-9-16)28-23(29)27-15-6-4-3-5-7-15/h8-15H,3-7H2,1-2H3,(H,24,25,26)(H2,27,28,29)

> <Ligand InChI Key>
MWAKSHNGTXXSDD-UHFFFAOYSA-N

> <BindingDB MonomerID>
233113

> <BindingDB Ligand Name>
N-Cyclohexyl-N&#39;-{4-[6,7-dimethoxy-quinazolin-4-ylamino]phenyl}urea (11j)

> <Target Name Assigned by Curator or DataSource>
Epidermal growth factor receptor

> <Target Source Organism According to Curator or DataSource>
Homo sapiens

> <Ki (nM)>


> <IC50 (nM)>
51300

> <Kd (nM)>


> <EC50 (nM)>


> <kon (M-1-s-1)>


> <koff (s-1)>


> <Temp C>


> <Curation/DataSource>
Curated from the literature by BindingDB

> <Article DOI>
10.3109/14756360903169485

> <PubChem AID>


> <Patent Number>


> <Authors>
Garofalo, A; Goossens, L; Lemoine, A; Farce, A; Arlot, Y; Depreux, P

> <Institution>
Université Lille Nord de France

> <Link to Ligand in BindingDB>
http://www.bindingdb.org/bind/chemsearch/marvin/MolStructure.jsp?monomerid=233113

> <Link to Ligand-Target Pair in BindingDB>
http://www.bindingdb.org/jsp/dbsearch/PrimarySearch_ki.jsp?energyterm=kJ/mole&tag=r21&monomerid=233113&enzyme=Epidermal+growth+factor+receptor&column=ki&startPg=0&Increment=50&submit=Search

> <Ligand HET ID in PDB>


> <PDB ID(s) for Ligand-Target Complex>


> <PubChem CID>
129010611

> <PubChem SID>
340093207

> <ChEBI ID of Ligand>


> <ChEMBL ID of Ligand>


> <DrugBank ID of Ligand>


> <IUPHAR_GRAC ID of Ligand>


> <KEGG ID of Ligand>


> <ZINC ID of Ligand>


> <Number of Protein Chains in Target (>
1

> <BindingDB Target Chain Sequence>
MRPSGTAGAALLALLAALCPASRALEEKKVCQGTSNKLTQLGTFEDHFLSLQRMFNNCEVVLGNLEITYVQRNYDLSFLKTIQEVAGYVLIALNTVERIPLENLQIIRGNMYYENSYALAVLSNYDANKTGLKELPMRNLQEILHGAVRFSNNPALCNVESIQWRDIVSSDFLSNMSMDFQNHLGSCQKCDPSCPNGSCWGAGEENCQKLTKIICAQQCSGRCRGKSPSDCCHNQCAAGCTGPRESDCLVCRKFRDEATCKDTCPPLMLYNPTTYQMDVNPEGKYSFGATCVKKCPRNYVVTDHGSCVRACGADSYEMEEDGVRKCKKCEGPCRKVCNGIGIGEFKDSLSINATNIKHFKNCTSISGDLHILPVAFRGDSFTHTPPLDPQELDILKTVKEITGFLLIQAWPENRTDLHAFENLEIIRGRTKQHGQFSLAVVSLNITSLGLRSLKEISDGDVIISGNKNLCYANTINWKKLFGTSGQKTKIISNRGENSCKATGQVCHALCSPEGCWGPEPRDCVSCRNVSRGRECVDKCNLLEGEPREFVENSECIQCHPECLPQAMNITCTGRGPDNCIQCAHYIDGPHCVKTCPAGVMGENNTLVWKYADAGHVCHLCHPNCTYGCTGPGLEGCPTNGPKIPSIATGMVGALLLLLVVALGIGLFMRRRHIVRKRTLRRLLQERELVEPLTPSGEAPNQALLRILKETEFKKIKVLGSGAFGTVYKGLWIPEGEKVKIPVAIKELREATSPKANKEILDEAYVMASVDNPHVCRLLGICLTSTVQLITQLMPFGCLLDYVREHKDNIGSQYLLNWCVQIAKGMNYLEDRRLVHRDLAARNVLVKTPQHVKITDFGLAKLLGAEEKEYHAEGGKVPIKWMALESILHRIYTHQSDVWSYGVTVWELMTFGSKPYDGIPASEISSILEKGERLPQPPICTIDVYMIMVKCWMIDADSRPKFRELIIEFSKMARDPQRYLVIQGDERMHLPSPTDSNFYRALMDEEDMDDVVDADEYLIPQQGFFSSPSTSRTPLLSSLSATSNNSTVACIDRNGLQSCPIKEDSFLQRYSSDPTGALTEDSIDDTFLPVPEYINQSVPKRPAGSVQNPVYHNQPLNPAPSRDPHYQDPHSTAVGNPEYLNTVQPTCVNSTFDSPAHWAQKGSHQISLDNPDYQQDFFPKEAKPNGIFKGSTAENAEYLRVAPQSSEFIGA

> <PDB ID(s) of Target Chain>
1IVO,1M14,1M17,1MOX,1XKK,1Z9I,2GS2,2GS6,2ITW,2ITX,2ITY,2J5E,2J5F,2J6M,2RF9,2RGP,3B2V,3BEL,3GOP,3POZ,3QWQ,3VJO,3W2O,3W2P,3W2Q,3W2R,3W2S,3W32,3W33,4G5J,4I23,4JQ7,4JQ8,4JR3,4JRV,4KRO,4LI5,4RJ4,4RJ5,4RJ6,4RJ7,4RJ8,4TKS,4UIP,4UV7,4WKQ,4WRG,4ZAU,5C8K,5C8M,5C8N,5CAL,5CAN,5CAO,5CAP,5CAQ,5CAS,5CAU,5CAV,5EDP,5EDQ,5EDR,5EM5,5EM6,5EM7,5EM8,5FED,5GNK,5HCX,5HCY,5HCZ,5HIB,5HIC,5UGB,5WB7,5WB8,5Y25,6S89,6S8A

> <UniProt (SwissProt) Recommended Name of Target Chain>
Epidermal growth factor receptor

> <UniProt (SwissProt) Entry Name of Target Chain>
EGFR_HUMAN

> <UniProt (SwissProt) Primary ID of Target Chain>
P00533

> <UniProt (SwissProt) Secondary ID(s) of Target Chain>
O00688,O00732,P06268,Q14225,Q68GS5,Q92795,Q9BZS2,Q9GZX1,Q9H2C9,Q9H3C9,Q9UMD7,Q9UMD8,Q9UMG5

> <UniProt (SwissProt) Alternative ID(s) of Target Chain>


> <UniProt (TrEMBL) Submitted Name of Target Chain>


> <UniProt (TrEMBL) Entry Name of Target Chain>


> <UniProt (TrEMBL) Primary ID of Target Chain>


> <UniProt (TrEMBL) Secondary ID(s) of Target Chain>


> <UniProt (TrEMBL) Alternative ID(s) of Target Chain>


> <training label>
4.28988

> <i_lp_mmshare_version>
54117

> <s_epik_input>
W0NIM11PYyhbY0hdMSljKE9bQ0gzXSlbY0hdYyhjMTIpbltjSF1uYzJbTkhdYzNbY0hdW2NIXWMoW2NIXVtjSF0zKVtOSF1DKD1PKVtOSF1bQ0hdNFtDSDJdW0NIMl1bQ0gyXVtDSDJdW0NIMl00

> <s_epik_cmdline>
J2VwaWtfcHl0aG9uJywgJy1waHQnLCAnMC4xJywgJy1waCcsICc3LjQnLCAnLXRuJywgJzgnLCAnLW1hJywgJzIwMCcsICctaW1hZScsICc8aW5maWxlLm1hZT4nLCAnLW9tYWUnLCAnPG91dGZpbGUubWFlPic=

> <r_lp_tautomer_probability>
1

> <r_epik_Ionization_Penalty>
  0.0007

> <r_epik_Ionization_Penalty_Charging>
  0.0000

> <r_epik_Ionization_Penalty_Neutral>
  0.0007

> <r_epik_State_Penalty>
  0.0000

> <r_epik_Charging_Adjusted_Penalty>
0

> <i_epik_Tot_Q>
0

> <i_epik_Tot_abs_Q>
0

> <i_f3d_flags>
0

> <s_lp_Force_Field>
OPLS_2005

> <r_lp_Energy>
31.444668

> <b_lp_Chiralities_Consistent>
1

> <s_lp_Variant>
/home/bortolaa/Project/GT/mario-master/ligands/set505ligs_train.sdf:3-1

> <s_i_glide_gridfile>
struct_1_site_1

> <i_i_glide_lignum>
3

> <i_i_glide_rotatable_bonds>
8

> <r_i_docking_score>
-6.3762222755313

> <r_i_glide_ligand_efficiency>
-0.205684589533268

> <r_i_glide_ligand_efficiency_sa>
-0.646133589315268

> <r_i_glide_ligand_efficiency_ln>
-1.43803353087747

> <r_i_glide_gscore>
-6.3762222755313

> <r_i_glide_lipo>
-2.25405129520123

> <r_i_glide_hbond>
-0.409402846638842

> <r_i_glide_metal>
0

> <r_i_glide_rewards>
-1.07096901194842

> <r_i_glide_evdw>
-44.1466178894043

> <r_i_glide_ecoul>
-6.60838317871094

> <r_i_glide_erotb>
0.557312477958042

> <r_i_glide_esite>
-0.000523228423991125

> <r_i_glide_emodel>
-30.3627645080023

> <r_i_glide_energy>
-50.7550010681152

> <r_i_glide_einternal>
6.62848424911499

> <i_i_glide_confnum>
6

> <i_i_glide_posenum>
276

> <r_i_glide_eff_state_penalty>
0

> <PMID>
20222760

> <r_glide_shape_similarity>
0.644677996635437

> <pH>
7.5

> <s_m_subgroup_title>
505 training

> <s_m_subgroupid>
pocket_pv

> <b_m_subgroup_collapsed>
0

$$$$
/home/bortolaa/Project/GT/mario-master/ligands/set505ligs_train.sdf:62
                    3D
 Schrodinger Suite 2021-2.
 74 78  0  0  1  0            999 V2000
   24.5500    1.0201   53.2202 C   0  0  0  0  0  0
   25.9902    0.6193   53.3326 C   0  0  0  0  0  0
   27.0135    1.5898   53.4570 C   0  0  0  0  0  0
   28.3596    1.1789   53.5682 C   0  0  0  0  0  0
   28.6781   -0.1983   53.5486 C   0  0  0  0  0  0
   27.6743   -1.1592   53.3737 C   0  0  0  0  0  0
   26.3368   -0.7508   53.2587 C   0  0  0  0  0  0
   24.2432    2.1215   52.7690 O   0  0  0  0  0  0
   23.6807    0.1249   53.7319 N   0  0  0  0  0  0
   30.2893   -0.7500   53.7705 Cl  0  0  0  0  0  0
   22.2923    0.0035   53.4845 C   0  0  0  0  0  0
   21.6136    0.7199   52.4634 C   0  0  0  0  0  0
   20.2514    0.4895   52.2051 C   0  0  0  0  0  0
   19.5608   -0.4680   52.9758 C   0  0  0  0  0  0
   20.2345   -1.1784   53.9928 C   0  0  0  0  0  0
   21.5944   -0.9487   54.2509 C   0  0  0  0  0  0
   18.2397   -0.8452   52.7474 N   0  0  0  0  0  0
   14.9499    1.2587   51.3883 N   0  0  0  0  0  0
   16.1914    1.7498   51.3805 C   0  0  0  0  0  0
   17.2959    1.1167   51.7748 N   0  0  0  0  0  0
   17.1487   -0.1478   52.2166 C   0  0  0  0  0  0
   15.8878   -0.7855   52.2140 C   0  0  0  0  0  0
   15.7165   -2.1375   52.5932 C   0  0  0  0  0  0
   14.4377   -2.7476   52.5750 C   0  0  0  0  0  0
   13.3219   -1.9942   52.1481 C   0  0  0  0  0  0
   13.5126   -0.6391   51.7613 C   0  0  0  0  0  0
   14.7803   -0.0194   51.7905 C   0  0  0  0  0  0
   12.1026   -2.6549   52.1239 O   0  0  0  0  0  0
   10.9453   -1.9830   51.6313 C   0  0  0  0  0  0
   10.3412   -1.0406   52.7003 C   0  0  0  0  0  0
    9.4539    0.0675   52.0903 C   0  0  0  0  0  0
   10.2461    0.9761   51.2518 N   0  0  2  0  0  0
   11.0062    1.9332   52.0743 C   0  0  0  0  0  0
   11.9104    2.7942   51.1616 C   0  0  0  0  0  0
   11.0889    3.5348   50.1745 N   0  3  0  0  0  0
   10.2188    2.6075   49.4017 C   0  0  0  0  0  0
    9.3642    1.7420   50.3614 C   0  0  0  0  0  0
   11.8701    4.4732   49.3328 C   0  0  0  0  0  0
   14.2193   -4.0588   52.9585 O   0  0  0  0  0  0
   15.2225   -4.6972   53.7397 C   0  0  0  0  0  0
   26.7717    2.6442   53.4798 H   0  0  0  0  0  0
   29.1431    1.9131   53.6911 H   0  0  0  0  0  0
   27.9264   -2.2099   53.3440 H   0  0  0  0  0  0
   25.5847   -1.5130   53.1150 H   0  0  0  0  0  0
   24.0861   -0.6298   54.2649 H   0  0  0  0  0  0
   22.1276    1.4284   51.8334 H   0  0  0  0  0  0
   19.7765    1.0197   51.3946 H   0  0  0  0  0  0
   19.7072   -1.9181   54.5770 H   0  0  0  0  0  0
   22.0998   -1.5142   55.0207 H   0  0  0  0  0  0
   17.9766   -1.6857   53.2367 H   0  0  0  0  0  0
   16.3096    2.7664   51.0350 H   0  0  0  0  0  0
   16.5716   -2.7196   52.8945 H   0  0  0  0  0  0
   12.6845   -0.0539   51.4117 H   0  0  0  0  0  0
   10.2037   -2.7373   51.3645 H   0  0  0  0  0  0
   11.1782   -1.4688   50.6963 H   0  0  0  0  0  0
   11.1278   -0.5981   53.3096 H   0  0  0  0  0  0
    9.7463   -1.6358   53.3937 H   0  0  0  0  0  0
    8.9368    0.6298   52.8709 H   0  0  0  0  0  0
    8.6786   -0.4083   51.4888 H   0  0  0  0  0  0
   11.6348    1.4189   52.7993 H   0  0  0  0  0  0
   10.3191    2.5527   52.6501 H   0  0  0  0  0  0
   12.4851    3.4967   51.7665 H   0  0  0  0  0  0
   12.6186    2.1677   50.6233 H   0  0  0  0  0  0
    9.5612    3.1855   48.7518 H   0  0  0  0  0  0
   10.8333    1.9745   48.7594 H   0  0  0  0  0  0
    8.6798    2.3610   50.9447 H   0  0  0  0  0  0
    8.7480    1.0580   49.7748 H   0  0  0  0  0  0
   12.5807    3.9354   48.7051 H   0  0  0  0  0  0
   11.2089    5.0535   48.6895 H   0  0  0  0  0  0
   12.4251    5.1753   49.9586 H   0  0  0  0  0  0
   14.8275   -5.6241   54.1537 H   0  0  0  0  0  0
   16.0948   -4.9492   53.1370 H   0  0  0  0  0  0
   15.5329   -4.0672   54.5745 H   0  0  0  0  0  0
   10.4388    4.0979   50.7500 H   0  0  0  0  0  0
  1  2  1  0  0  0
  1  8  2  0  0  0
  1  9  1  0  0  0
  2  3  1  0  0  0
  2  7  2  0  0  0
  3  4  2  0  0  0
  3 41  1  0  0  0
  4  5  1  0  0  0
  4 42  1  0  0  0
  5  6  2  0  0  0
  5 10  1  0  0  0
  6  7  1  0  0  0
  6 43  1  0  0  0
  7 44  1  0  0  0
  9 11  1  0  0  0
  9 45  1  0  0  0
 11 12  1  0  0  0
 11 16  2  0  0  0
 12 13  2  0  0  0
 12 46  1  0  0  0
 13 14  1  0  0  0
 13 47  1  0  0  0
 14 15  2  0  0  0
 14 17  1  0  0  0
 15 16  1  0  0  0
 15 48  1  0  0  0
 16 49  1  0  0  0
 17 21  1  0  0  0
 17 50  1  0  0  0
 18 19  1  0  0  0
 18 27  2  0  0  0
 19 20  2  0  0  0
 19 51  1  0  0  0
 20 21  1  0  0  0
 21 22  2  0  0  0
 22 23  1  0  0  0
 22 27  1  0  0  0
 23 24  2  0  0  0
 23 52  1  0  0  0
 24 25  1  0  0  0
 24 39  1  0  0  0
 25 26  2  0  0  0
 25 28  1  0  0  0
 26 27  1  0  0  0
 26 53  1  0  0  0
 28 29  1  0  0  0
 29 30  1  0  0  0
 29 54  1  0  0  0
 29 55  1  0  0  0
 30 31  1  0  0  0
 30 56  1  0  0  0
 30 57  1  0  0  0
 31 32  1  0  0  0
 31 58  1  0  0  0
 31 59  1  0  0  0
 32 33  1  0  0  0
 32 37  1  0  0  0
 33 34  1  0  0  0
 33 60  1  0  0  0
 33 61  1  0  0  0
 34 35  1  0  0  0
 34 62  1  0  0  0
 34 63  1  0  0  0
 35 36  1  0  0  0
 35 38  1  0  0  0
 35 74  1  0  0  0
 36 37  1  0  0  0
 36 64  1  0  0  0
 36 65  1  0  0  0
 37 66  1  0  0  0
 37 67  1  0  0  0
 38 68  1  0  0  0
 38 69  1  0  0  0
 38 70  1  0  0  0
 39 40  1  0  0  0
 40 71  1  0  0  0
 40 72  1  0  0  0
 40 73  1  0  0  0
M  CHG  1  35   1
M  END
> <s_m_entry_id>
419

> <s_m_entry_name>
pocket_pv.230

> <s_m_Source_Path>
/home/bortolaa/Project/GT/mario-master/docking/set505protein_struct_1_site_1_set505ligs_train

> <s_m_Source_File>
pocket_pv.maegz

> <i_m_Source_File_Index>
230

> <From>
www.bindingDB.org

> <BindingDB Reactant_set_id>
50463839

> <Ligand InChI>
InChI=1S/C30H33ClN6O3/c1-36-13-15-37(16-14-36)12-3-17-40-28-19-26-25(18-27(28)39-2)29(33-20-32-26)34-23-8-10-24(11-9-23)35-30(38)21-4-6-22(31)7-5-21/h4-11,18-20H,3,12-17H2,1-2H3,(H,35,38)(H,32,33,34)

> <Ligand InChI Key>
SYBFJVJKOITZFD-UHFFFAOYSA-N

> <BindingDB MonomerID>
50144599

> <BindingDB Ligand Name>
CHEMBL3760090

> <Target Name Assigned by Curator or DataSource>
Epidermal growth factor receptor

> <Target Source Organism According to Curator or DataSource>
Homo sapiens

> <Ki (nM)>


> <IC50 (nM)>
1330

> <Kd (nM)>


> <EC50 (nM)>


> <kon (M-1-s-1)>


> <koff (s-1)>


> <pH>


> <Temp C>


> <Curation/DataSource>
ChEMBL

> <Article DOI>
10.1016/j.ejmech.2015.12.032

> <PubChem AID>


> <Patent Number>


> <Authors>
Zhang, HQ; Gong, FH; Li, CG; Zhang, C; Wang, YJ; Xu, YG; Sun, LP

> <Institution>
China Pharmaceutical University

> <Link to Ligand in BindingDB>
http://www.bindingdb.org/bind/chemsearch/marvin/MolStructure.jsp?monomerid=50144599

> <Link to Ligand-Target Pair in BindingDB>
http://www.bindingdb.org/jsp/dbsearch/PrimarySearch_ki.jsp?energyterm=kJ/mole&tag=r21&monomerid=50144599&enzyme=Epidermal+growth+factor+receptor&column=ki&startPg=0&Increment=50&submit=Search

> <Ligand HET ID in PDB>


> <PDB ID(s) for Ligand-Target Complex>


> <PubChem CID>
3009563

> <PubChem SID>
85414728

> <ChEBI ID of Ligand>


> <ChEMBL ID of Ligand>
CHEMBL3760090

> <DrugBank ID of Ligand>


> <IUPHAR_GRAC ID of Ligand>


> <KEGG ID of Ligand>


> <ZINC ID of Ligand>


> <Number of Protein Chains in Target (>
1

> <BindingDB Target Chain Sequence>
MRPSGTAGAALLALLAALCPASRALEEKKVCQGTSNKLTQLGTFEDHFLSLQRMFNNCEVVLGNLEITYVQRNYDLSFLKTIQEVAGYVLIALNTVERIPLENLQIIRGNMYYENSYALAVLSNYDANKTGLKELPMRNLQEILHGAVRFSNNPALCNVESIQWRDIVSSDFLSNMSMDFQNHLGSCQKCDPSCPNGSCWGAGEENCQKLTKIICAQQCSGRCRGKSPSDCCHNQCAAGCTGPRESDCLVCRKFRDEATCKDTCPPLMLYNPTTYQMDVNPEGKYSFGATCVKKCPRNYVVTDHGSCVRACGADSYEMEEDGVRKCKKCEGPCRKVCNGIGIGEFKDSLSINATNIKHFKNCTSISGDLHILPVAFRGDSFTHTPPLDPQELDILKTVKEITGFLLIQAWPENRTDLHAFENLEIIRGRTKQHGQFSLAVVSLNITSLGLRSLKEISDGDVIISGNKNLCYANTINWKKLFGTSGQKTKIISNRGENSCKATGQVCHALCSPEGCWGPEPRDCVSCRNVSRGRECVDKCNLLEGEPREFVENSECIQCHPECLPQAMNITCTGRGPDNCIQCAHYIDGPHCVKTCPAGVMGENNTLVWKYADAGHVCHLCHPNCTYGCTGPGLEGCPTNGPKIPSIATGMVGALLLLLVVALGIGLFMRRRHIVRKRTLRRLLQERELVEPLTPSGEAPNQALLRILKETEFKKIKVLGSGAFGTVYKGLWIPEGEKVKIPVAIKELREATSPKANKEILDEAYVMASVDNPHVCRLLGICLTSTVQLITQLMPFGCLLDYVREHKDNIGSQYLLNWCVQIAKGMNYLEDRRLVHRDLAARNVLVKTPQHVKITDFGLAKLLGAEEKEYHAEGGKVPIKWMALESILHRIYTHQSDVWSYGVTVWELMTFGSKPYDGIPASEISSILEKGERLPQPPICTIDVYMIMVKCWMIDADSRPKFRELIIEFSKMARDPQRYLVIQGDERMHLPSPTDSNFYRALMDEEDMDDVVDADEYLIPQQGFFSSPSTSRTPLLSSLSATSNNSTVACIDRNGLQSCPIKEDSFLQRYSSDPTGALTEDSIDDTFLPVPEYINQSVPKRPAGSVQNPVYHNQPLNPAPSRDPHYQDPHSTAVGNPEYLNTVQPTCVNSTFDSPAHWAQKGSHQISLDNPDYQQDFFPKEAKPNGIFKGSTAENAEYLRVAPQSSEFIGA

> <PDB ID(s) of Target Chain>
1IVO,1M14,1M17,1MOX,1XKK,1Z9I,2GS2,2GS6,2ITW,2ITX,2ITY,2J5E,2J5F,2J6M,2RF9,2RGP,3B2V,3BEL,3GOP,3POZ,3QWQ,3VJO,3W2O,3W2P,3W2Q,3W2R,3W2S,3W32,3W33,4G5J,4I23,4JQ7,4JQ8,4JR3,4JRV,4KRO,4LI5,4RJ4,4RJ5,4RJ6,4RJ7,4RJ8,4TKS,4UIP,4UV7,4WKQ,4WRG,4ZAU,5C8K,5C8M,5C8N,5CAL,5CAN,5CAO,5CAP,5CAQ,5CAS,5CAU,5CAV,5EDP,5EDQ,5EDR,5EM5,5EM6,5EM7,5EM8,5FED,5GNK,5HCX,5HCY,5HCZ,5HIB,5HIC,5UGB,5WB7,5WB8,5Y25,6S89,6S8A

> <UniProt (SwissProt) Recommended Name of Target Chain>
Epidermal growth factor receptor

> <UniProt (SwissProt) Entry Name of Target Chain>
EGFR_HUMAN

> <UniProt (SwissProt) Primary ID of Target Chain>
P00533

> <UniProt (SwissProt) Secondary ID(s) of Target Chain>
O00688,O00732,P06268,Q14225,Q68GS5,Q92795,Q9BZS2,Q9GZX1,Q9H2C9,Q9H3C9,Q9UMD7,Q9UMD8,Q9UMG5

> <UniProt (SwissProt) Alternative ID(s) of Target Chain>


> <UniProt (TrEMBL) Submitted Name of Target Chain>


> <UniProt (TrEMBL) Entry Name of Target Chain>


> <UniProt (TrEMBL) Primary ID of Target Chain>


> <UniProt (TrEMBL) Secondary ID(s) of Target Chain>


> <UniProt (TrEMBL) Alternative ID(s) of Target Chain>


> <training label>
5.87615

> <i_lp_mmshare_version>
54117

> <s_epik_input>
W2NIXTFbY0hdYyhDbClbY0hdW2NIXWMxQyg9TylbTkhdYzJbY0hdW2NIXWMoW2NIXVtjSF0yKVtOSF1jM25bY0hdbmMoYzM0KVtjSF1jKGMoW2NIXTQpT1tDSDNdKU9bQ0gyXVtDSDJdW0NIMl1ONVtDSDJdW0NIMl1OKFtDSDNdKVtDSDJdW0NIMl01

> <s_epik_cmdline>
J2VwaWtfcHl0aG9uJywgJy1waHQnLCAnMC4xJywgJy1waCcsICc3LjQnLCAnLXRuJywgJzgnLCAnLW1hJywgJzIwMCcsICctaW1hZScsICc8aW5maWxlLm1hZT4nLCAnLW9tYWUnLCAnPG91dGZpbGUubWFlPic=

> <r_lp_tautomer_probability>
0.999978000241998

> <r_epik_Ionization_Penalty>
  0.0669

> <r_epik_Ionization_Penalty_Charging>
  0.0659

> <r_epik_Ionization_Penalty_Neutral>
  0.0010

> <r_epik_State_Penalty>
  0.1437

> <r_epik_Charging_Adjusted_Penalty>
0.209599309145144

> <i_epik_Tot_Q>
1

> <i_epik_Tot_abs_Q>
1

> <i_f3d_flags>
0

> <s_lp_Force_Field>
OPLS_2005

> <r_lp_Energy>
48.810121

> <b_lp_Chiralities_Consistent>
1

> <s_lp_Variant>
/home/bortolaa/Project/GT/mario-master/ligands/set505ligs_train.sdf:62-1

> <s_i_glide_gridfile>
struct_1_site_1

> <i_i_glide_lignum>
62

> <i_i_glide_rotatable_bonds>
11

> <r_i_docking_score>
-6.36017772973736

> <r_i_glide_ligand_efficiency>
-0.159004443243434

> <r_i_glide_ligand_efficiency_sa>
-0.543787546053329

> <r_i_glide_ligand_efficiency_ln>
-1.35643873807783

> <r_i_glide_gscore>
-6.50387772973736

> <r_i_glide_lipo>
-3.15199148093766

> <r_i_glide_hbond>
-0.185631696900862

> <r_i_glide_metal>
0

> <r_i_glide_rewards>
-0.213874623863045

> <r_i_glide_evdw>
-45.7451591491699

> <r_i_glide_ecoul>
-7.61150312423706

> <r_i_glide_erotb>
0.576603498058263

> <r_i_glide_esite>
-0.1

> <r_i_glide_emodel>
-27.2178889500453

> <r_i_glide_energy>
-53.356662273407

> <r_i_glide_einternal>
6.49764347076416

> <i_i_glide_confnum>
48

> <i_i_glide_posenum>
126

> <r_i_glide_eff_state_penalty>
0.1437

> <PMID>
26826581

> <r_glide_shape_similarity>
0.507185876369476

> <s_m_subgroup_title>
505 training

> <s_m_subgroupid>
pocket_pv

> <b_m_subgroup_collapsed>
0

$$$$
/home/bortolaa/Project/GT/mario-master/ligands/set505ligs_train.sdf:117
                    3D
 Schrodinger Suite 2021-2.
 76 80  0  0  1  0            999 V2000
   14.4855   -2.9650   52.9067 C   0  0  0  0  0  0
   13.3291   -2.2223   52.5574 C   0  0  0  0  0  0
   13.4775   -0.8776   52.1228 C   0  0  0  0  0  0
   15.7585   -2.3357   52.8426 C   0  0  0  0  0  0
   15.8847   -0.9843   52.4371 C   0  0  0  0  0  0
   14.7358   -0.2468   52.0600 C   0  0  0  0  0  0
   14.8460    1.0249   51.6192 N   0  0  0  0  0  0
   16.0722    1.5415   51.5326 C   0  0  0  0  0  0
   17.2083    0.9453   51.8862 N   0  0  0  0  0  0
   17.1288   -0.3107   52.3682 C   0  0  0  0  0  0
   18.2866   -0.9375   52.8566 N   0  0  0  0  0  0
   19.5975   -0.4666   52.9746 C   0  0  0  0  0  0
   20.1526    0.4976   52.1052 C   0  0  0  0  0  0
   21.4895    0.8842   52.2626 C   0  0  0  0  0  0
   22.2921    0.3130   53.2698 C   0  0  0  0  0  0
   21.7482   -0.6621   54.1394 C   0  0  0  0  0  0
   20.4038   -1.0475   53.9808 C   0  0  0  0  0  0
   23.6135    0.8095   53.3531 N   0  0  0  0  0  0
   24.7042    0.1688   53.7747 C   0  0  0  0  0  0
   25.8069    0.8444   53.4143 N   0  0  0  0  0  0
   24.6964   -0.8660   54.4439 O   0  0  0  0  0  0
   27.1341    0.3696   53.4495 C   0  0  0  0  0  0
   28.1587    1.3217   53.6069 C   0  0  0  0  0  0
   29.4933    0.8839   53.6928 C   0  0  0  0  0  0
   29.8133   -0.4865   53.5842 C   0  0  0  0  0  0
   28.7950   -1.4319   53.3753 C   0  0  0  0  0  0
   27.4571   -1.0038   53.3050 C   0  0  0  0  0  0
   14.3061   -4.2823   53.2958 O   0  0  0  0  0  0
   15.4235   -5.0033   53.8078 C   0  0  0  0  0  0
   12.1066   -2.8740   52.6561 O   0  0  0  0  0  0
   10.9150   -2.2085   52.2292 C   0  0  0  0  0  0
   10.4079   -1.1705   53.2618 C   0  0  0  0  0  0
    9.4280   -0.1431   52.6448 C   0  0  0  0  0  0
   10.0816    0.6867   51.6213 N   0  0  2  0  0  0
   10.9066    1.7438   52.2308 C   0  0  0  0  0  0
   11.6576    2.5167   51.1208 C   0  0  0  0  0  0
   10.6891    3.1315   50.1745 N   0  3  0  0  0  0
    9.7556    2.1118   49.6272 C   0  0  0  0  0  0
    9.0679    1.3368   50.7749 C   0  0  0  0  0  0
   11.3383    3.9575   49.1289 C   0  0  0  0  0  0
   12.6241   -0.3051   51.8099 H   0  0  0  0  0  0
   16.6441   -2.8914   53.1003 H   0  0  0  0  0  0
   16.1524    2.5504   51.1561 H   0  0  0  0  0  0
   18.1053   -1.7722   53.3909 H   0  0  0  0  0  0
   19.5868    0.9341   51.2972 H   0  0  0  0  0  0
   21.8997    1.6201   51.5863 H   0  0  0  0  0  0
   22.3302   -1.1039   54.9335 H   0  0  0  0  0  0
   19.9862   -1.7891   54.6473 H   0  0  0  0  0  0
   23.7912    1.6526   52.8281 H   0  0  0  0  0  0
   25.6947    1.7796   53.0509 H   0  0  0  0  0  0
   27.9326    2.3761   53.6952 H   0  0  0  0  0  0
   30.2861    1.6025   53.8434 H   0  0  0  0  0  0
   30.8411   -0.8054   53.6611 H   0  0  0  0  0  0
   29.0355   -2.4820   53.2809 H   0  0  0  0  0  0
   26.6898   -1.7472   53.1467 H   0  0  0  0  0  0
   15.1015   -5.9912   54.1312 H   0  0  0  0  0  0
   16.1877   -5.1363   53.0430 H   0  0  0  0  0  0
   15.8611   -4.4915   54.6651 H   0  0  0  0  0  0
   10.1427   -2.9640   52.0858 H   0  0  0  0  0  0
   11.0711   -1.7713   51.2432 H   0  0  0  0  0  0
   11.2414   -0.6617   53.7397 H   0  0  0  0  0  0
    9.9063   -1.7049   54.0678 H   0  0  0  0  0  0
    8.9890    0.4917   53.4165 H   0  0  0  0  0  0
    8.6056   -0.6973   52.1910 H   0  0  0  0  0  0
   11.6323    1.3215   52.9207 H   0  0  0  0  0  0
   10.2894    2.4132   52.8265 H   0  0  0  0  0  0
   12.2720    3.2968   51.5708 H   0  0  0  0  0  0
   12.3307    1.8500   50.5798 H   0  0  0  0  0  0
    8.9998    2.6064   49.0122 H   0  0  0  0  0  0
   10.2997    1.4223   48.9771 H   0  0  0  0  0  0
    8.4428    1.9996   51.3732 H   0  0  0  0  0  0
    8.4100    0.5823   50.3429 H   0  0  0  0  0  0
   11.9734    3.3450   48.4882 H   0  0  0  0  0  0
   10.5871    4.4484   48.5102 H   0  0  0  0  0  0
   11.9532    4.7372   49.5796 H   0  0  0  0  0  0
   10.1165    3.7713   50.7593 H   0  0  0  0  0  0
  1  2  2  0  0  0
  1  4  1  0  0  0
  1 28  1  0  0  0
  2  3  1  0  0  0
  2 30  1  0  0  0
  3  6  2  0  0  0
  3 41  1  0  0  0
  4  5  2  0  0  0
  4 42  1  0  0  0
  5  6  1  0  0  0
  5 10  1  0  0  0
  6  7  1  0  0  0
  7  8  2  0  0  0
  8  9  1  0  0  0
  8 43  1  0  0  0
  9 10  2  0  0  0
 10 11  1  0  0  0
 11 12  1  0  0  0
 11 44  1  0  0  0
 12 13  2  0  0  0
 12 17  1  0  0  0
 13 14  1  0  0  0
 13 45  1  0  0  0
 14 15  2  0  0  0
 14 46  1  0  0  0
 15 16  1  0  0  0
 15 18  1  0  0  0
 16 17  2  0  0  0
 16 47  1  0  0  0
 17 48  1  0  0  0
 18 19  1  0  0  0
 18 49  1  0  0  0
 19 20  1  0  0  0
 19 21  2  0  0  0
 20 22  1  0  0  0
 20 50  1  0  0  0
 22 23  2  0  0  0
 22 27  1  0  0  0
 23 24  1  0  0  0
 23 51  1  0  0  0
 24 25  2  0  0  0
 24 52  1  0  0  0
 25 26  1  0  0  0
 25 53  1  0  0  0
 26 27  2  0  0  0
 26 54  1  0  0  0
 27 55  1  0  0  0
 28 29  1  0  0  0
 29 56  1  0  0  0
 29 57  1  0  0  0
 29 58  1  0  0  0
 30 31  1  0  0  0
 31 32  1  0  0  0
 31 59  1  0  0  0
 31 60  1  0  0  0
 32 33  1  0  0  0
 32 61  1  0  0  0
 32 62  1  0  0  0
 33 34  1  0  0  0
 33 63  1  0  0  0
 33 64  1  0  0  0
 34 35  1  0  0  0
 34 39  1  0  0  0
 35 36  1  0  0  0
 35 65  1  0  0  0
 35 66  1  0  0  0
 36 37  1  0  0  0
 36 67  1  0  0  0
 36 68  1  0  0  0
 37 38  1  0  0  0
 37 40  1  0  0  0
 37 76  1  0  0  0
 38 39  1  0  0  0
 38 69  1  0  0  0
 38 70  1  0  0  0
 39 71  1  0  0  0
 39 72  1  0  0  0
 40 73  1  0  0  0
 40 74  1  0  0  0
 40 75  1  0  0  0
M  CHG  1  37   1
M  END
> <s_m_entry_id>
420

> <s_m_entry_name>
pocket_pv.231

> <s_m_Source_Path>
/home/bortolaa/Project/GT/mario-master/docking/set505protein_struct_1_site_1_set505ligs_train

> <s_m_Source_File>
pocket_pv.maegz

> <i_m_Source_File_Index>
231

> <From>
www.bindingDB.org

> <BindingDB Reactant_set_id>
50553099

> <Ligand InChI>
InChI=1S/C30H35N7O3/c1-36-14-16-37(17-15-36)13-6-18-40-28-20-26-25(19-27(28)39-2)29(32-21-31-26)33-23-9-11-24(12-10-23)35-30(38)34-22-7-4-3-5-8-22/h3-5,7-12,19-21H,6,13-18H2,1-2H3,(H,31,32,33)(H2,34,35,38)

> <Ligand InChI Key>
CGETUSRFZPMYRP-UHFFFAOYSA-N

> <BindingDB MonomerID>
50210707

> <BindingDB Ligand Name>
CHEMBL3923551

> <Target Name Assigned by Curator or DataSource>
Epidermal growth factor receptor

> <Target Source Organism According to Curator or DataSource>
Homo sapiens

> <Ki (nM)>


> <Kd (nM)>


> <EC50 (nM)>


> <kon (M-1-s-1)>


> <koff (s-1)>


> <pH>


> <Temp C>


> <Curation/DataSource>
ChEMBL

> <Article DOI>
10.1016/j.ejmech.2016.09.039

> <PubChem AID>


> <Patent Number>


> <Authors>
Zhang, HQ; Gong, FH; Ye, JQ; Zhang, C; Yue, XH; Li, CG; Xu, YG; Sun, LP

> <Institution>
China Pharmaceutical University

> <Link to Ligand in BindingDB>
http://www.bindingdb.org/bind/chemsearch/marvin/MolStructure.jsp?monomerid=50210707

> <Link to Ligand-Target Pair in BindingDB>
http://www.bindingdb.org/jsp/dbsearch/PrimarySearch_ki.jsp?energyterm=kJ/mole&tag=r21&monomerid=50210707&enzyme=Epidermal+growth+factor+receptor&column=ki&startPg=0&Increment=50&submit=Search

> <Ligand HET ID in PDB>


> <PDB ID(s) for Ligand-Target Complex>


> <PubChem CID>
134139393

> <PubChem SID>
375982711

> <ChEBI ID of Ligand>


> <ChEMBL ID of Ligand>
CHEMBL3923551

> <DrugBank ID of Ligand>


> <IUPHAR_GRAC ID of Ligand>


> <KEGG ID of Ligand>


> <ZINC ID of Ligand>


> <Number of Protein Chains in Target (>
1

> <BindingDB Target Chain Sequence>
MRPSGTAGAALLALLAALCPASRALEEKKVCQGTSNKLTQLGTFEDHFLSLQRMFNNCEVVLGNLEITYVQRNYDLSFLKTIQEVAGYVLIALNTVERIPLENLQIIRGNMYYENSYALAVLSNYDANKTGLKELPMRNLQEILHGAVRFSNNPALCNVESIQWRDIVSSDFLSNMSMDFQNHLGSCQKCDPSCPNGSCWGAGEENCQKLTKIICAQQCSGRCRGKSPSDCCHNQCAAGCTGPRESDCLVCRKFRDEATCKDTCPPLMLYNPTTYQMDVNPEGKYSFGATCVKKCPRNYVVTDHGSCVRACGADSYEMEEDGVRKCKKCEGPCRKVCNGIGIGEFKDSLSINATNIKHFKNCTSISGDLHILPVAFRGDSFTHTPPLDPQELDILKTVKEITGFLLIQAWPENRTDLHAFENLEIIRGRTKQHGQFSLAVVSLNITSLGLRSLKEISDGDVIISGNKNLCYANTINWKKLFGTSGQKTKIISNRGENSCKATGQVCHALCSPEGCWGPEPRDCVSCRNVSRGRECVDKCNLLEGEPREFVENSECIQCHPECLPQAMNITCTGRGPDNCIQCAHYIDGPHCVKTCPAGVMGENNTLVWKYADAGHVCHLCHPNCTYGCTGPGLEGCPTNGPKIPSIATGMVGALLLLLVVALGIGLFMRRRHIVRKRTLRRLLQERELVEPLTPSGEAPNQALLRILKETEFKKIKVLGSGAFGTVYKGLWIPEGEKVKIPVAIKELREATSPKANKEILDEAYVMASVDNPHVCRLLGICLTSTVQLITQLMPFGCLLDYVREHKDNIGSQYLLNWCVQIAKGMNYLEDRRLVHRDLAARNVLVKTPQHVKITDFGLAKLLGAEEKEYHAEGGKVPIKWMALESILHRIYTHQSDVWSYGVTVWELMTFGSKPYDGIPASEISSILEKGERLPQPPICTIDVYMIMVKCWMIDADSRPKFRELIIEFSKMARDPQRYLVIQGDERMHLPSPTDSNFYRALMDEEDMDDVVDADEYLIPQQGFFSSPSTSRTPLLSSLSATSNNSTVACIDRNGLQSCPIKEDSFLQRYSSDPTGALTEDSIDDTFLPVPEYINQSVPKRPAGSVQNPVYHNQPLNPAPSRDPHYQDPHSTAVGNPEYLNTVQPTCVNSTFDSPAHWAQKGSHQISLDNPDYQQDFFPKEAKPNGIFKGSTAENAEYLRVAPQSSEFIGA

> <PDB ID(s) of Target Chain>
1IVO,1M14,1M17,1MOX,1XKK,1Z9I,2GS2,2GS6,2ITW,2ITX,2ITY,2J5E,2J5F,2J6M,2RF9,2RGP,3B2V,3BEL,3GOP,3POZ,3QWQ,3VJO,3W2O,3W2P,3W2Q,3W2R,3W2S,3W32,3W33,4G5J,4I23,4JQ7,4JQ8,4JR3,4JRV,4KRO,4LI5,4RJ4,4RJ5,4RJ6,4RJ7,4RJ8,4TKS,4UIP,4UV7,4WKQ,4WRG,4ZAU,5C8K,5C8M,5C8N,5CAL,5CAN,5CAO,5CAP,5CAQ,5CAS,5CAU,5CAV,5EDP,5EDQ,5EDR,5EM5,5EM6,5EM7,5EM8,5FED,5GNK,5HCX,5HCY,5HCZ,5HIB,5HIC,5UGB,5WB7,5WB8,5Y25,6S89,6S8A

> <UniProt (SwissProt) Recommended Name of Target Chain>
Epidermal growth factor receptor

> <UniProt (SwissProt) Entry Name of Target Chain>
EGFR_HUMAN

> <UniProt (SwissProt) Primary ID of Target Chain>
P00533

> <UniProt (SwissProt) Secondary ID(s) of Target Chain>
O00688,O00732,P06268,Q14225,Q68GS5,Q92795,Q9BZS2,Q9GZX1,Q9H2C9,Q9H3C9,Q9UMD7,Q9UMD8,Q9UMG5

> <UniProt (SwissProt) Alternative ID(s) of Target Chain>


> <UniProt (TrEMBL) Submitted Name of Target Chain>


> <UniProt (TrEMBL) Entry Name of Target Chain>


> <UniProt (TrEMBL) Primary ID of Target Chain>


> <UniProt (TrEMBL) Secondary ID(s) of Target Chain>


> <UniProt (TrEMBL) Alternative ID(s) of Target Chain>


> <training label>
6.7122

> <i_lp_mmshare_version>
54117

> <s_epik_input>
W0NIMl0xW0NIMl1OKFtDSDNdKVtDSDJdW0NIMl1OMVtDSDJdW0NIMl1bQ0gyXU9jKGMoW2NIXTIpT1tDSDNdKVtjSF1jKGMyMyluW2NIXW5jM1tOSF1jNFtjSF1bY0hdYyhbY0hdW2NIXTQpW05IXUMoPU8pW05IXWM1W2NIXVtjSF1bY0hdW2NIXVtjSF01

> <s_epik_cmdline>
J2VwaWtfcHl0aG9uJywgJy1waHQnLCAnMC4xJywgJy1waCcsICc3LjQnLCAnLXRuJywgJzgnLCAnLW1hJywgJzIwMCcsICctaW1hZScsICc8aW5maWxlLm1hZT4nLCAnLW9tYWUnLCAnPG91dGZpbGUubWFlPic=

> <r_lp_tautomer_probability>
0.999978000241998

> <r_epik_Ionization_Penalty>
  0.0669

> <r_epik_Ionization_Penalty_Charging>
  0.0659

> <r_epik_Ionization_Penalty_Neutral>
  0.0010

> <r_epik_State_Penalty>
  0.1437

> <r_epik_Charging_Adjusted_Penalty>
0.209599309145144

> <i_epik_Tot_Q>
1

> <i_epik_Tot_abs_Q>
1

> <i_f3d_flags>
0

> <s_lp_Force_Field>
OPLS_2005

> <r_lp_Energy>
54.015981

> <b_lp_Chiralities_Consistent>
1

> <s_lp_Variant>
/home/bortolaa/Project/GT/mario-master/ligands/set505ligs_train.sdf:117-1

> <s_i_glide_gridfile>
struct_1_site_1

> <i_i_glide_lignum>
138

> <i_i_glide_rotatable_bonds>
12

> <r_i_docking_score>
-6.35463244052528

> <r_i_glide_ligand_efficiency>
-0.158865811013132

> <r_i_glide_ligand_efficiency_sa>
-0.543313430495411

> <r_i_glide_ligand_efficiency_ln>
-1.35525609107947

> <r_i_glide_gscore>
-6.49833244052528

> <r_i_glide_lipo>
-3.00036706248837

> <r_i_glide_hbond>
-0.166033041833797

> <r_i_glide_metal>
0

> <r_i_glide_rewards>
-0.258071828288248

> <r_i_glide_evdw>
-43.7425956726074

> <r_i_glide_ecoul>
-9.94973945617676

> <r_i_glide_erotb>
0.702536514134601

> <r_i_glide_esite>
-0.0968063199925827

> <r_i_glide_emodel>
-28.7667975410466

> <r_i_glide_energy>
-53.6923351287842

> <r_i_glide_einternal>
6.96222352981567

> <i_i_glide_confnum>
55

> <i_i_glide_posenum>
281

> <r_i_glide_eff_state_penalty>
0.1437

> <IC50 (nM)>
194

> <PMID>
27688180

> <r_glide_shape_similarity>
0.502959549427032

> <s_m_subgroup_title>
505 training

> <s_m_subgroupid>
pocket_pv

> <b_m_subgroup_collapsed>
0

$$$$
BindingDB_50380461_mol_1
                    3D
 Schrodinger Suite 2021-2.
 47 49  0  0  1  0            999 V2000
   21.2806   -1.0172   54.2208 C   0  0  0  0  0  0
   19.9672   -1.2515   53.7725 C   0  0  0  0  0  0
   19.4253   -0.4448   52.7549 C   0  0  0  0  0  0
   21.9933    0.0826   53.7229 C   0  0  0  0  0  0
   21.8113   -1.8697   55.1521 O   0  0  0  0  0  0
   23.1864   -1.7561   55.4444 C   0  0  0  0  0  0
   19.3020   -2.3309   54.2881 O   0  0  0  0  0  0
   17.9201   -2.4580   53.9914 C   0  0  0  0  0  0
   21.4742    0.8564   52.6746 C   0  0  0  0  0  0
   20.1910    0.5549   52.1534 C   0  0  0  0  0  0
   19.6795    1.2234   51.1092 N   0  0  0  0  0  0
   20.4185    2.2007   50.5958 C   0  0  0  0  0  0
   21.5869    2.6366   51.0715 N   0  0  0  0  0  0
   22.1444    1.9820   52.1078 C   0  0  0  0  0  0
   23.3645    2.5488   52.5734 N   0  0  0  0  0  0
   24.5940    1.9114   52.8361 C   0  0  0  0  0  0
   25.7317    2.5361   53.3774 C   0  0  0  0  0  0
   26.9401    1.8204   53.5319 C   0  0  0  0  0  0
   26.9988    0.4446   53.2367 C   0  0  0  0  0  0
   25.8743   -0.1577   52.6537 C   0  0  0  0  0  0
   24.7354    0.6138   52.4092 C   0  0  0  0  0  0
   28.2205   -0.2393   53.4460 N   0  0  0  0  0  0
   28.4738   -1.5991   53.3324 C   0  0  0  0  0  0
   29.7500   -1.9182   53.5760 O   0  0  0  0  0  0
   27.6864   -2.4720   52.9762 O   0  0  0  0  0  0
   30.6953   -1.0439   54.1470 C   0  0  0  0  0  0
   28.1890    2.5591   53.9327 C   0  0  0  0  0  0
   18.4463   -0.6267   52.3449 H   0  0  0  0  0  0
   22.9412    0.3517   54.1450 H   0  0  0  0  0  0
   23.4872   -2.6002   56.0660 H   0  0  0  0  0  0
   23.8095   -1.7510   54.5479 H   0  0  0  0  0  0
   23.3944   -0.8675   56.0362 H   0  0  0  0  0  0
   17.5079   -3.2908   54.5619 H   0  0  0  0  0  0
   17.3688   -1.5587   54.2806 H   0  0  0  0  0  0
   17.7487   -2.6714   52.9382 H   0  0  0  0  0  0
   20.0018    2.7465   49.7572 H   0  0  0  0  0  0
   23.4629    3.5235   52.3395 H   0  0  0  0  0  0
   25.6755    3.5788   53.6432 H   0  0  0  0  0  0
   25.8752   -1.1688   52.2979 H   0  0  0  0  0  0
   23.9325    0.3243   51.7790 H   0  0  0  0  0  0
   29.0050    0.3242   53.7341 H   0  0  0  0  0  0
   31.5084   -1.6626   54.5383 H   0  0  0  0  0  0
   30.2769   -0.4664   54.9746 H   0  0  0  0  0  0
   31.0884   -0.3504   53.4054 H   0  0  0  0  0  0
   27.9541    3.5782   54.2246 H   0  0  0  0  0  0
   28.6909    2.0756   54.7642 H   0  0  0  0  0  0
   28.8795    2.6118   53.0935 H   0  0  0  0  0  0
  1  2  2  0  0  0
  1  4  1  0  0  0
  1  5  1  0  0  0
  2  3  1  0  0  0
  2  7  1  0  0  0
  3 10  2  0  0  0
  3 28  1  0  0  0
  4  9  2  0  0  0
  4 29  1  0  0  0
  5  6  1  0  0  0
  6 30  1  0  0  0
  6 31  1  0  0  0
  6 32  1  0  0  0
  7  8  1  0  0  0
  8 33  1  0  0  0
  8 34  1  0  0  0
  8 35  1  0  0  0
  9 10  1  0  0  0
  9 14  1  0  0  0
 10 11  1  0  0  0
 11 12  2  0  0  0
 12 13  1  0  0  0
 12 36  1  0  0  0
 13 14  2  0  0  0
 14 15  1  0  0  0
 15 16  1  0  0  0
 15 37  1  0  0  0
 16 17  2  0  0  0
 16 21  1  0  0  0
 17 18  1  0  0  0
 17 38  1  0  0  0
 18 19  2  0  0  0
 18 27  1  0  0  0
 19 20  1  0  0  0
 19 22  1  0  0  0
 20 21  2  0  0  0
 20 39  1  0  0  0
 21 40  1  0  0  0
 22 23  1  0  0  0
 22 41  1  0  0  0
 23 24  1  0  0  0
 23 25  2  0  0  0
 24 26  1  0  0  0
 26 42  1  0  0  0
 26 43  1  0  0  0
 26 44  1  0  0  0
 27 45  1  0  0  0
 27 46  1  0  0  0
 27 47  1  0  0  0
M  END
> <s_m_entry_id>
421

> <s_m_entry_name>
pocket_pv.232

> <s_m_Source_Path>
/home/bortolaa/Project/GT/mario-master/docking/set505protein_struct_1_site_1_set505ligs_train

> <s_m_Source_File>
pocket_pv.maegz

> <i_m_Source_File_Index>
232

> <From>
www.bindingDB.org

> <BindingDB Reactant_set_id>
50927744

> <Ligand InChI>
InChI=1S/C19H20N4O4/c1-11-7-12(5-6-14(11)23-19(24)27-4)22-18-13-8-16(25-2)17(26-3)9-15(13)20-10-21-18/h5-10H,1-4H3,(H,23,24)(H,20,21,22)

> <Ligand InChI Key>
ZYQMWLIENUFZCY-UHFFFAOYSA-N

> <BindingDB MonomerID>
50380461

> <BindingDB Ligand Name>
CHEMBL2018755

> <Target Name Assigned by Curator or DataSource>
Epidermal growth factor receptor

> <Target Source Organism According to Curator or DataSource>
Homo sapiens

> <Ki (nM)>


> <IC50 (nM)>
4000

> <Kd (nM)>


> <EC50 (nM)>


> <kon (M-1-s-1)>


> <koff (s-1)>


> <pH>


> <Temp C>


> <Curation/DataSource>
ChEMBL

> <Article DOI>
10.1021/jm2013453

> <PubChem AID>


> <Patent Number>


> <Authors>
Garofalo, A; Farce, A; Ravez, S; Lemoine, A; Six, P; Chavatte, P; Goossens, L; Depreux, P

> <Institution>
Univ. Lille Nord de France

> <Link to Ligand in BindingDB>
http://www.bindingdb.org/bind/chemsearch/marvin/MolStructure.jsp?monomerid=50380461

> <Link to Ligand-Target Pair in BindingDB>
http://www.bindingdb.org/jsp/dbsearch/PrimarySearch_ki.jsp?energyterm=kJ/mole&tag=r21&monomerid=50380461&enzyme=Epidermal+growth+factor+receptor&column=ki&startPg=0&Increment=50&submit=Search

> <Ligand HET ID in PDB>


> <PDB ID(s) for Ligand-Target Complex>


> <PubChem CID>
56954009

> <PubChem SID>
160859544

> <ChEBI ID of Ligand>


> <ChEMBL ID of Ligand>
CHEMBL2018755

> <DrugBank ID of Ligand>


> <IUPHAR_GRAC ID of Ligand>


> <KEGG ID of Ligand>


> <ZINC ID of Ligand>
ZINC84587174

> <Number of Protein Chains in Target (>
1

> <BindingDB Target Chain Sequence>
MRPSGTAGAALLALLAALCPASRALEEKKVCQGTSNKLTQLGTFEDHFLSLQRMFNNCEVVLGNLEITYVQRNYDLSFLKTIQEVAGYVLIALNTVERIPLENLQIIRGNMYYENSYALAVLSNYDANKTGLKELPMRNLQEILHGAVRFSNNPALCNVESIQWRDIVSSDFLSNMSMDFQNHLGSCQKCDPSCPNGSCWGAGEENCQKLTKIICAQQCSGRCRGKSPSDCCHNQCAAGCTGPRESDCLVCRKFRDEATCKDTCPPLMLYNPTTYQMDVNPEGKYSFGATCVKKCPRNYVVTDHGSCVRACGADSYEMEEDGVRKCKKCEGPCRKVCNGIGIGEFKDSLSINATNIKHFKNCTSISGDLHILPVAFRGDSFTHTPPLDPQELDILKTVKEITGFLLIQAWPENRTDLHAFENLEIIRGRTKQHGQFSLAVVSLNITSLGLRSLKEISDGDVIISGNKNLCYANTINWKKLFGTSGQKTKIISNRGENSCKATGQVCHALCSPEGCWGPEPRDCVSCRNVSRGRECVDKCNLLEGEPREFVENSECIQCHPECLPQAMNITCTGRGPDNCIQCAHYIDGPHCVKTCPAGVMGENNTLVWKYADAGHVCHLCHPNCTYGCTGPGLEGCPTNGPKIPSIATGMVGALLLLLVVALGIGLFMRRRHIVRKRTLRRLLQERELVEPLTPSGEAPNQALLRILKETEFKKIKVLGSGAFGTVYKGLWIPEGEKVKIPVAIKELREATSPKANKEILDEAYVMASVDNPHVCRLLGICLTSTVQLITQLMPFGCLLDYVREHKDNIGSQYLLNWCVQIAKGMNYLEDRRLVHRDLAARNVLVKTPQHVKITDFGLAKLLGAEEKEYHAEGGKVPIKWMALESILHRIYTHQSDVWSYGVTVWELMTFGSKPYDGIPASEISSILEKGERLPQPPICTIDVYMIMVKCWMIDADSRPKFRELIIEFSKMARDPQRYLVIQGDERMHLPSPTDSNFYRALMDEEDMDDVVDADEYLIPQQGFFSSPSTSRTPLLSSLSATSNNSTVACIDRNGLQSCPIKEDSFLQRYSSDPTGALTEDSIDDTFLPVPEYINQSVPKRPAGSVQNPVYHNQPLNPAPSRDPHYQDPHSTAVGNPEYLNTVQPTCVNSTFDSPAHWAQKGSHQISLDNPDYQQDFFPKEAKPNGIFKGSTAENAEYLRVAPQSSEFIGA

> <PDB ID(s) of Target Chain>
1IVO,1M14,1M17,1MOX,1XKK,1Z9I,2GS2,2GS6,2ITW,2ITX,2ITY,2J5E,2J5F,2J6M,2RF9,2RGP,3B2V,3BEL,3GOP,3POZ,3QWQ,3VJO,3W2O,3W2P,3W2Q,3W2R,3W2S,3W32,3W33,4G5J,4I23,4JQ7,4JQ8,4JR3,4JRV,4KRO,4LI5,4RJ4,4RJ5,4RJ6,4RJ7,4RJ8,4TKS,4UIP,4UV7,4WKQ,4WRG,4ZAU,5C8K,5C8M,5C8N,5CAL,5CAN,5CAO,5CAP,5CAQ,5CAS,5CAU,5CAV,5EDP,5EDQ,5EDR,5EM5,5EM6,5EM7,5EM8,5FED,5GNK,5HCX,5HCY,5HCZ,5HIB,5HIC,5UGB,5WB7,5WB8,5Y25,6S89,6S8A

> <UniProt (SwissProt) Recommended Name of Target Chain>
Epidermal growth factor receptor

> <UniProt (SwissProt) Entry Name of Target Chain>
EGFR_HUMAN

> <UniProt (SwissProt) Primary ID of Target Chain>
P00533

> <UniProt (SwissProt) Secondary ID(s) of Target Chain>
O00688,O00732,P06268,Q14225,Q68GS5,Q92795,Q9BZS2,Q9GZX1,Q9H2C9,Q9H3C9,Q9UMD7,Q9UMD8,Q9UMG5

> <UniProt (SwissProt) Alternative ID(s) of Target Chain>


> <UniProt (TrEMBL) Submitted Name of Target Chain>


> <UniProt (TrEMBL) Entry Name of Target Chain>


> <UniProt (TrEMBL) Primary ID of Target Chain>


> <UniProt (TrEMBL) Secondary ID(s) of Target Chain>


> <UniProt (TrEMBL) Alternative ID(s) of Target Chain>


> <training label>
5.39794

> <i_lp_mmshare_version>
54117

> <s_epik_input>
W0NIM11PYyhbY0hdMSljKE9bQ0gzXSlbY0hdYyhjMTIpbltjSF1uYzJbTkhdYzNbY0hdYyhbQ0gzXSljKFtjSF1bY0hdMylbTkhdQyg9TylPW0NIM10=

> <s_epik_cmdline>
J2VwaWtfcHl0aG9uJywgJy1waHQnLCAnMC4xJywgJy1waCcsICc3LjQnLCAnLXRuJywgJzgnLCAnLW1hJywgJzIwMCcsICctaW1hZScsICc8aW5maWxlLm1hZT4nLCAnLW9tYWUnLCAnPG91dGZpbGUubWFlPic=

> <r_lp_tautomer_probability>
1

> <r_epik_Ionization_Penalty>
  0.0006

> <r_epik_Ionization_Penalty_Charging>
  0.0000

> <r_epik_Ionization_Penalty_Neutral>
  0.0006

> <r_epik_State_Penalty>
  0.0000

> <r_epik_Charging_Adjusted_Penalty>
0

> <i_epik_Tot_Q>
0

> <i_epik_Tot_abs_Q>
0

> <i_f3d_flags>
0

> <s_lp_Force_Field>
OPLS_2005

> <r_lp_Energy>
28.786871

> <b_lp_Chiralities_Consistent>
1

> <s_lp_Variant>
BindingDB_50380461_mol_1-1

> <s_i_glide_gridfile>
struct_1_site_1

> <i_i_glide_lignum>
47

> <i_i_glide_rotatable_bonds>
7

> <r_i_docking_score>
-6.34338336858853

> <r_i_glide_ligand_efficiency>
-0.234940124762538

> <r_i_glide_ligand_efficiency_sa>
-0.704820373513291

> <r_i_glide_ligand_efficiency_ln>
-1.4766350693593

> <r_i_glide_gscore>
-6.34338336858853

> <r_i_glide_lipo>
-2.52667530008176

> <r_i_glide_hbond>
-0.32

> <r_i_glide_metal>
0

> <r_i_glide_rewards>
-1.43174493472614

> <r_i_glide_evdw>
-43.9584045410156

> <r_i_glide_ecoul>
-2.90002155303955

> <r_i_glide_erotb>
0.567960326226079

> <r_i_glide_esite>
0

> <r_i_glide_emodel>
-28.6795538143631

> <r_i_glide_energy>
-46.8584260940552

> <r_i_glide_einternal>
15.9354238510132

> <i_i_glide_confnum>
9

> <i_i_glide_posenum>
113

> <r_i_glide_eff_state_penalty>
0

> <PMID>
22229669

> <s_epik_Chemistry_Notes>
This compound has an ester and may undergo hydrolysis at high or low pH.

> <r_glide_shape_similarity>
0.713492453098297

> <s_m_subgroup_title>
505 training

> <s_m_subgroupid>
pocket_pv

> <b_m_subgroup_collapsed>
0

$$$$
/home/bortolaa/Project/GT/mario-master/ligands/set505ligs_train.sdf:119
                    3D
 Schrodinger Suite 2021-2.
 74 78  0  0  1  0            999 V2000
   25.4688    1.1222   53.2976 C   0  0  0  0  0  0
   26.9280    0.8465   53.4225 C   0  0  0  0  0  0
   27.4177   -0.4756   53.3187 C   0  0  0  0  0  0
   28.7904   -0.7323   53.4674 C   0  0  0  0  0  0
   29.6806    0.3303   53.7046 C   0  0  0  0  0  0
   29.1965    1.6530   53.7686 C   0  0  0  0  0  0
   27.8253    1.9173   53.6141 C   0  0  0  0  0  0
   25.0758    2.2085   52.8754 O   0  0  0  0  0  0
   24.6804    0.1438   53.7753 N   0  0  0  0  0  0
   29.3693   -2.3469   53.3746 Cl  0  0  0  0  0  0
   23.2848    0.0053   53.6283 C   0  0  0  0  0  0
   22.5706    0.6749   52.6059 C   0  0  0  0  0  0
   21.2028    0.4390   52.4205 C   0  0  0  0  0  0
   20.5276   -0.4664   53.2662 C   0  0  0  0  0  0
   21.2428   -1.1322   54.2868 C   0  0  0  0  0  0
   22.6176   -0.9033   54.4716 C   0  0  0  0  0  0
   19.1836   -0.8141   53.1072 N   0  0  0  0  0  0
   16.0066    1.2615   51.4456 N   0  0  0  0  0  0
   17.2734    1.6684   51.3731 C   0  0  0  0  0  0
   18.3369    1.0303   51.8564 N   0  0  0  0  0  0
   18.1298   -0.1673   52.4437 C   0  0  0  0  0  0
   16.8387   -0.7432   52.4846 C   0  0  0  0  0  0
   16.5968   -2.0511   52.9733 C   0  0  0  0  0  0
   15.2854   -2.5946   52.9581 C   0  0  0  0  0  0
   14.2036   -1.7606   52.5771 C   0  0  0  0  0  0
   14.4618   -0.4540   52.0800 C   0  0  0  0  0  0
   15.7711    0.0463   51.9887 C   0  0  0  0  0  0
   12.9292   -2.2774   52.7490 O   0  0  0  0  0  0
   11.8346   -1.3645   52.8175 C   0  0  0  0  0  0
   11.9116   -0.4501   54.0734 C   0  0  0  0  0  0
   11.1028    0.8611   53.9632 C   0  0  0  0  0  0
   11.7269    1.7441   52.9686 N   0  0  2  0  0  0
   11.9360    3.0969   53.5090 C   0  0  0  0  0  0
   12.6449    3.9980   52.4641 C   0  0  0  0  0  0
   11.8890    4.0253   51.1792 N   0  3  0  0  0  0
   11.6403    2.6490   50.6849 C   0  0  0  0  0  0
   10.8852    1.8472   51.7647 C   0  0  0  0  0  0
   12.4966    4.9132   50.1603 C   0  0  0  0  0  0
   14.9887   -3.8956   53.3370 O   0  0  0  0  0  0
   16.0652   -4.7658   53.6831 C   0  0  0  0  0  0
   26.7533   -1.3083   53.1342 H   0  0  0  0  0  0
   30.7386    0.1413   53.8223 H   0  0  0  0  0  0
   29.8885    2.4665   53.9305 H   0  0  0  0  0  0
   27.4691    2.9377   53.6704 H   0  0  0  0  0  0
   25.1467   -0.6069   54.2623 H   0  0  0  0  0  0
   23.0596    1.3349   51.9084 H   0  0  0  0  0  0
   20.7206    0.9305   51.5922 H   0  0  0  0  0  0
   20.7404   -1.8363   54.9325 H   0  0  0  0  0  0
   23.1543   -1.4327   55.2464 H   0  0  0  0  0  0
   18.8905   -1.5828   53.6879 H   0  0  0  0  0  0
   17.4450    2.6340   50.9202 H   0  0  0  0  0  0
   17.4263   -2.6535   53.3078 H   0  0  0  0  0  0
   13.6633    0.1906   51.7507 H   0  0  0  0  0  0
   10.9076   -1.9374   52.8519 H   0  0  0  0  0  0
   11.7867   -0.8076   51.8869 H   0  0  0  0  0  0
   12.9449   -0.1905   54.3128 H   0  0  0  0  0  0
   11.5572   -1.0194   54.9347 H   0  0  0  0  0  0
   11.1059    1.3392   54.9439 H   0  0  0  0  0  0
   10.0569    0.6599   53.7291 H   0  0  0  0  0  0
   12.5508    3.0391   54.4085 H   0  0  0  0  0  0
   10.9820    3.5308   53.8073 H   0  0  0  0  0  0
   12.7318    5.0121   52.8574 H   0  0  0  0  0  0
   13.6617    3.6384   52.2879 H   0  0  0  0  0  0
   11.0373    2.6942   49.7772 H   0  0  0  0  0  0
   12.5825    2.1628   50.4267 H   0  0  0  0  0  0
    9.9338    2.3298   51.9989 H   0  0  0  0  0  0
   10.6357    0.8628   51.3725 H   0  0  0  0  0  0
   13.5177    4.6101   49.9227 H   0  0  0  0  0  0
   11.9120    4.9077   49.2399 H   0  0  0  0  0  0
   12.5154    5.9337   50.5347 H   0  0  0  0  0  0
   15.6714   -5.7599   53.8950 H   0  0  0  0  0  0
   16.7824   -4.8620   52.8655 H   0  0  0  0  0  0
   16.5876   -4.4166   54.5746 H   0  0  0  0  0  0
   10.9408    4.3819   51.3799 H   0  0  0  0  0  0
  1  2  1  0  0  0
  1  8  2  0  0  0
  1  9  1  0  0  0
  2  3  1  0  0  0
  2  7  2  0  0  0
  3  4  2  0  0  0
  3 41  1  0  0  0
  4  5  1  0  0  0
  4 10  1  0  0  0
  5  6  2  0  0  0
  5 42  1  0  0  0
  6  7  1  0  0  0
  6 43  1  0  0  0
  7 44  1  0  0  0
  9 11  1  0  0  0
  9 45  1  0  0  0
 11 12  1  0  0  0
 11 16  2  0  0  0
 12 13  2  0  0  0
 12 46  1  0  0  0
 13 14  1  0  0  0
 13 47  1  0  0  0
 14 15  2  0  0  0
 14 17  1  0  0  0
 15 16  1  0  0  0
 15 48  1  0  0  0
 16 49  1  0  0  0
 17 21  1  0  0  0
 17 50  1  0  0  0
 18 19  1  0  0  0
 18 27  2  0  0  0
 19 20  2  0  0  0
 19 51  1  0  0  0
 20 21  1  0  0  0
 21 22  2  0  0  0
 22 23  1  0  0  0
 22 27  1  0  0  0
 23 24  2  0  0  0
 23 52  1  0  0  0
 24 25  1  0  0  0
 24 39  1  0  0  0
 25 26  2  0  0  0
 25 28  1  0  0  0
 26 27  1  0  0  0
 26 53  1  0  0  0
 28 29  1  0  0  0
 29 30  1  0  0  0
 29 54  1  0  0  0
 29 55  1  0  0  0
 30 31  1  0  0  0
 30 56  1  0  0  0
 30 57  1  0  0  0
 31 32  1  0  0  0
 31 58  1  0  0  0
 31 59  1  0  0  0
 32 33  1  0  0  0
 32 37  1  0  0  0
 33 34  1  0  0  0
 33 60  1  0  0  0
 33 61  1  0  0  0
 34 35  1  0  0  0
 34 62  1  0  0  0
 34 63  1  0  0  0
 35 36  1  0  0  0
 35 38  1  0  0  0
 35 74  1  0  0  0
 36 37  1  0  0  0
 36 64  1  0  0  0
 36 65  1  0  0  0
 37 66  1  0  0  0
 37 67  1  0  0  0
 38 68  1  0  0  0
 38 69  1  0  0  0
 38 70  1  0  0  0
 39 40  1  0  0  0
 40 71  1  0  0  0
 40 72  1  0  0  0
 40 73  1  0  0  0
M  CHG  1  35   1
M  END
> <s_m_entry_id>
422

> <s_m_entry_name>
pocket_pv.233

> <s_m_Source_Path>
/home/bortolaa/Project/GT/mario-master/docking/set505protein_struct_1_site_1_set505ligs_train

> <s_m_Source_File>
pocket_pv.maegz

> <i_m_Source_File_Index>
233

> <From>
www.bindingDB.org

> <BindingDB Reactant_set_id>
50463841

> <Ligand InChI>
InChI=1S/C30H33ClN6O3/c1-36-12-14-37(15-13-36)11-4-16-40-28-19-26-25(18-27(28)39-2)29(33-20-32-26)34-23-7-9-24(10-8-23)35-30(38)21-5-3-6-22(31)17-21/h3,5-10,17-20H,4,11-16H2,1-2H3,(H,35,38)(H,32,33,34)

> <Ligand InChI Key>
BJPTWWXRRXRJMX-UHFFFAOYSA-N

> <BindingDB MonomerID>
50144601

> <BindingDB Ligand Name>
CHEMBL3758749

> <Target Name Assigned by Curator or DataSource>
Epidermal growth factor receptor

> <Target Source Organism According to Curator or DataSource>
Homo sapiens

> <Ki (nM)>


> <Kd (nM)>


> <EC50 (nM)>


> <kon (M-1-s-1)>


> <koff (s-1)>


> <pH>


> <Temp C>


> <Curation/DataSource>
ChEMBL

> <Article DOI>
10.1016/j.ejmech.2015.12.032

> <PubChem AID>


> <Patent Number>


> <Authors>
Zhang, HQ; Gong, FH; Li, CG; Zhang, C; Wang, YJ; Xu, YG; Sun, LP

> <Institution>
China Pharmaceutical University

> <Link to Ligand in BindingDB>
http://www.bindingdb.org/bind/chemsearch/marvin/MolStructure.jsp?monomerid=50144601

> <Link to Ligand-Target Pair in BindingDB>
http://www.bindingdb.org/jsp/dbsearch/PrimarySearch_ki.jsp?energyterm=kJ/mole&tag=r21&monomerid=50144601&enzyme=Epidermal+growth+factor+receptor&column=ki&startPg=0&Increment=50&submit=Search

> <Ligand HET ID in PDB>


> <PDB ID(s) for Ligand-Target Complex>


> <PubChem CID>
3009562

> <PubChem SID>
85414764

> <ChEBI ID of Ligand>


> <ChEMBL ID of Ligand>
CHEMBL3758749

> <DrugBank ID of Ligand>


> <IUPHAR_GRAC ID of Ligand>


> <KEGG ID of Ligand>


> <ZINC ID of Ligand>


> <Number of Protein Chains in Target (>
1

> <BindingDB Target Chain Sequence>
MRPSGTAGAALLALLAALCPASRALEEKKVCQGTSNKLTQLGTFEDHFLSLQRMFNNCEVVLGNLEITYVQRNYDLSFLKTIQEVAGYVLIALNTVERIPLENLQIIRGNMYYENSYALAVLSNYDANKTGLKELPMRNLQEILHGAVRFSNNPALCNVESIQWRDIVSSDFLSNMSMDFQNHLGSCQKCDPSCPNGSCWGAGEENCQKLTKIICAQQCSGRCRGKSPSDCCHNQCAAGCTGPRESDCLVCRKFRDEATCKDTCPPLMLYNPTTYQMDVNPEGKYSFGATCVKKCPRNYVVTDHGSCVRACGADSYEMEEDGVRKCKKCEGPCRKVCNGIGIGEFKDSLSINATNIKHFKNCTSISGDLHILPVAFRGDSFTHTPPLDPQELDILKTVKEITGFLLIQAWPENRTDLHAFENLEIIRGRTKQHGQFSLAVVSLNITSLGLRSLKEISDGDVIISGNKNLCYANTINWKKLFGTSGQKTKIISNRGENSCKATGQVCHALCSPEGCWGPEPRDCVSCRNVSRGRECVDKCNLLEGEPREFVENSECIQCHPECLPQAMNITCTGRGPDNCIQCAHYIDGPHCVKTCPAGVMGENNTLVWKYADAGHVCHLCHPNCTYGCTGPGLEGCPTNGPKIPSIATGMVGALLLLLVVALGIGLFMRRRHIVRKRTLRRLLQERELVEPLTPSGEAPNQALLRILKETEFKKIKVLGSGAFGTVYKGLWIPEGEKVKIPVAIKELREATSPKANKEILDEAYVMASVDNPHVCRLLGICLTSTVQLITQLMPFGCLLDYVREHKDNIGSQYLLNWCVQIAKGMNYLEDRRLVHRDLAARNVLVKTPQHVKITDFGLAKLLGAEEKEYHAEGGKVPIKWMALESILHRIYTHQSDVWSYGVTVWELMTFGSKPYDGIPASEISSILEKGERLPQPPICTIDVYMIMVKCWMIDADSRPKFRELIIEFSKMARDPQRYLVIQGDERMHLPSPTDSNFYRALMDEEDMDDVVDADEYLIPQQGFFSSPSTSRTPLLSSLSATSNNSTVACIDRNGLQSCPIKEDSFLQRYSSDPTGALTEDSIDDTFLPVPEYINQSVPKRPAGSVQNPVYHNQPLNPAPSRDPHYQDPHSTAVGNPEYLNTVQPTCVNSTFDSPAHWAQKGSHQISLDNPDYQQDFFPKEAKPNGIFKGSTAENAEYLRVAPQSSEFIGA

> <PDB ID(s) of Target Chain>
1IVO,1M14,1M17,1MOX,1XKK,1Z9I,2GS2,2GS6,2ITW,2ITX,2ITY,2J5E,2J5F,2J6M,2RF9,2RGP,3B2V,3BEL,3GOP,3POZ,3QWQ,3VJO,3W2O,3W2P,3W2Q,3W2R,3W2S,3W32,3W33,4G5J,4I23,4JQ7,4JQ8,4JR3,4JRV,4KRO,4LI5,4RJ4,4RJ5,4RJ6,4RJ7,4RJ8,4TKS,4UIP,4UV7,4WKQ,4WRG,4ZAU,5C8K,5C8M,5C8N,5CAL,5CAN,5CAO,5CAP,5CAQ,5CAS,5CAU,5CAV,5EDP,5EDQ,5EDR,5EM5,5EM6,5EM7,5EM8,5FED,5GNK,5HCX,5HCY,5HCZ,5HIB,5HIC,5UGB,5WB7,5WB8,5Y25,6S89,6S8A

> <UniProt (SwissProt) Recommended Name of Target Chain>
Epidermal growth factor receptor

> <UniProt (SwissProt) Entry Name of Target Chain>
EGFR_HUMAN

> <UniProt (SwissProt) Primary ID of Target Chain>
P00533

> <UniProt (SwissProt) Secondary ID(s) of Target Chain>
O00688,O00732,P06268,Q14225,Q68GS5,Q92795,Q9BZS2,Q9GZX1,Q9H2C9,Q9H3C9,Q9UMD7,Q9UMD8,Q9UMG5

> <UniProt (SwissProt) Alternative ID(s) of Target Chain>


> <UniProt (TrEMBL) Submitted Name of Target Chain>


> <UniProt (TrEMBL) Entry Name of Target Chain>


> <UniProt (TrEMBL) Primary ID of Target Chain>


> <UniProt (TrEMBL) Secondary ID(s) of Target Chain>


> <UniProt (TrEMBL) Alternative ID(s) of Target Chain>


> <training label>
6.82391

> <i_lp_mmshare_version>
54117

> <s_epik_input>
W2NIXTFbY0hdW2NIXWMoQ2wpW2NIXWMxQyg9TylbTkhdYzJbY0hdW2NIXWMoW2NIXVtjSF0yKVtOSF1jM25bY0hdbmMoYzM0KVtjSF1jKGMoW2NIXTQpT1tDSDNdKU9bQ0gyXVtDSDJdW0NIMl1ONVtDSDJdW0NIMl1OKFtDSDNdKVtDSDJdW0NIMl01

> <s_epik_cmdline>
J2VwaWtfcHl0aG9uJywgJy1waHQnLCAnMC4xJywgJy1waCcsICc3LjQnLCAnLXRuJywgJzgnLCAnLW1hJywgJzIwMCcsICctaW1hZScsICc8aW5maWxlLm1hZT4nLCAnLW9tYWUnLCAnPG91dGZpbGUubWFlPic=

> <r_lp_tautomer_probability>
0.999978000241998

> <r_epik_Ionization_Penalty>
  0.0669

> <r_epik_Ionization_Penalty_Charging>
  0.0659

> <r_epik_Ionization_Penalty_Neutral>
  0.0010

> <r_epik_State_Penalty>
  0.1437

> <r_epik_Charging_Adjusted_Penalty>
0.209599309145144

> <i_epik_Tot_Q>
1

> <i_epik_Tot_abs_Q>
1

> <i_f3d_flags>
0

> <s_lp_Force_Field>
OPLS_2005

> <r_lp_Energy>
52.072762

> <b_lp_Chiralities_Consistent>
1

> <s_lp_Variant>
/home/bortolaa/Project/GT/mario-master/ligands/set505ligs_train.sdf:119-1

> <s_i_glide_gridfile>
struct_1_site_1

> <i_i_glide_lignum>
140

> <i_i_glide_rotatable_bonds>
11

> <r_i_docking_score>
-6.31966234250257

> <r_i_glide_ligand_efficiency>
-0.157991558562564

> <r_i_glide_ligand_efficiency_sa>
-0.540323529175499

> <r_i_glide_ligand_efficiency_ln>
-1.34779799829527

> <r_i_glide_gscore>
-6.46336234250257

> <r_i_glide_lipo>
-3.16347092036065

> <r_i_glide_hbond>
-0.2

> <r_i_glide_metal>
0

> <r_i_glide_rewards>
-0.195467817729792

> <r_i_glide_evdw>
-51.1574478149414

> <r_i_glide_ecoul>
-5.48769807815552

> <r_i_glide_erotb>
0.576603498058263

> <r_i_glide_esite>
-0.1

> <r_i_glide_emodel>
-30.3434634350383

> <r_i_glide_energy>
-56.6451458930969

> <r_i_glide_einternal>
13.0991945266724

> <i_i_glide_confnum>
232

> <i_i_glide_posenum>
59

> <r_i_glide_eff_state_penalty>
0.1437

> <IC50 (nM)>
150

> <PMID>
26826581

> <r_glide_shape_similarity>
0.531750738620758

> <s_m_subgroup_title>
505 training

> <s_m_subgroupid>
pocket_pv

> <b_m_subgroup_collapsed>
0

$$$$
BindingDB_50380467_mol_1
                    3D
 Schrodinger Suite 2021-2.
 48 50  0  0  1  0            999 V2000
   26.4144    1.7568   52.6077 C   0  0  0  0  0  0
   27.4019    1.1651   53.3941 C   0  0  0  0  0  0
   27.0338    0.2187   54.3544 C   0  0  0  0  0  0
   25.0670    1.3401   52.7169 C   0  0  0  0  0  0
   26.8444    2.7384   51.7563 O   0  0  0  0  0  0
   25.8687    3.5955   51.1853 C   0  0  0  0  0  0
   28.6949    1.5817   53.2203 O   0  0  0  0  0  0
   29.5952    1.3012   54.2820 C   0  0  0  0  0  0
   24.7060    0.3742   53.6648 C   0  0  0  0  0  0
   25.6870   -0.1288   54.5378 C   0  0  0  0  0  0
   25.3512   -0.9292   55.5568 N   0  0  0  0  0  0
   24.0992   -1.3622   55.6259 C   0  0  0  0  0  0
   23.1196   -1.0179   54.8153 N   0  0  0  0  0  0
   23.3963   -0.1255   53.8473 C   0  0  0  0  0  0
   22.3656    0.3259   53.0324 N   0  0  0  0  0  0
   21.0162   -0.0115   52.9706 C   0  0  0  0  0  0
   20.3750   -0.9195   53.8353 C   0  0  0  0  0  0
   19.0060   -1.1454   53.7390 C   0  0  0  0  0  0
   18.2465   -0.4996   52.7486 C   0  0  0  0  0  0
   18.8800    0.3715   51.8433 C   0  0  0  0  0  0
   20.2551    0.6219   51.9730 C   0  0  0  0  0  0
   16.8644   -0.7686   52.7932 N   0  0  0  0  0  0
   15.8672   -0.0382   52.2824 C   0  0  0  0  0  0
   14.7454   -0.2638   52.9629 N   0  0  0  0  0  0
   15.9470    0.7222   51.3262 O   0  0  0  0  0  0
   13.4689    0.3697   52.7120 C   0  0  0  0  0  0
   13.3186    1.6259   53.5737 C   0  0  0  0  0  0
   27.7570   -0.2382   55.0044 H   0  0  0  0  0  0
   24.3162    1.7674   52.0701 H   0  0  0  0  0  0
   26.3721    4.4309   50.6968 H   0  0  0  0  0  0
   25.2673    3.0885   50.4339 H   0  0  0  0  0  0
   25.2167    4.0091   51.9503 H   0  0  0  0  0  0
   30.5081    1.8879   54.1840 H   0  0  0  0  0  0
   29.1725    1.5814   55.2487 H   0  0  0  0  0  0
   29.8846    0.2425   54.3013 H   0  0  0  0  0  0
   23.8471   -2.0371   56.4302 H   0  0  0  0  0  0
   22.6434    1.0323   52.3726 H   0  0  0  0  0  0
   20.8574   -1.4534   54.6314 H   0  0  0  0  0  0
   18.5242   -1.8102   54.4384 H   0  0  0  0  0  0
   18.3377    0.8710   51.0652 H   0  0  0  0  0  0
   20.7232    1.3035   51.2765 H   0  0  0  0  0  0
   16.5799   -1.4118   53.5137 H   0  0  0  0  0  0
   14.7676   -0.9037   53.7456 H   0  0  0  0  0  0
   12.6827   -0.3459   52.9542 H   0  0  0  0  0  0
   13.3591    0.6166   51.6540 H   0  0  0  0  0  0
   12.3509    2.0948   53.3909 H   0  0  0  0  0  0
   14.1021    2.3520   53.3581 H   0  0  0  0  0  0
   13.3669    1.3677   54.6328 H   0  0  0  0  0  0
  1  2  2  0  0  0
  1  4  1  0  0  0
  1  5  1  0  0  0
  2  3  1  0  0  0
  2  7  1  0  0  0
  3 10  2  0  0  0
  3 28  1  0  0  0
  4  9  2  0  0  0
  4 29  1  0  0  0
  5  6  1  0  0  0
  6 30  1  0  0  0
  6 31  1  0  0  0
  6 32  1  0  0  0
  7  8  1  0  0  0
  8 33  1  0  0  0
  8 34  1  0  0  0
  8 35  1  0  0  0
  9 10  1  0  0  0
  9 14  1  0  0  0
 10 11  1  0  0  0
 11 12  2  0  0  0
 12 13  1  0  0  0
 12 36  1  0  0  0
 13 14  2  0  0  0
 14 15  1  0  0  0
 15 16  1  0  0  0
 15 37  1  0  0  0
 16 17  2  0  0  0
 16 21  1  0  0  0
 17 18  1  0  0  0
 17 38  1  0  0  0
 18 19  2  0  0  0
 18 39  1  0  0  0
 19 20  1  0  0  0
 19 22  1  0  0  0
 20 21  2  0  0  0
 20 40  1  0  0  0
 21 41  1  0  0  0
 22 23  1  0  0  0
 22 42  1  0  0  0
 23 24  1  0  0  0
 23 25  2  0  0  0
 24 26  1  0  0  0
 24 43  1  0  0  0
 26 27  1  0  0  0
 26 44  1  0  0  0
 26 45  1  0  0  0
 27 46  1  0  0  0
 27 47  1  0  0  0
 27 48  1  0  0  0
M  END
> <s_m_entry_id>
423

> <s_m_entry_name>
pocket_pv.234

> <s_m_Source_Path>
/home/bortolaa/Project/GT/mario-master/docking/set505protein_struct_1_site_1_set505ligs_train

> <s_m_Source_File>
pocket_pv.maegz

> <i_m_Source_File_Index>
234

> <From>
www.bindingDB.org

> <BindingDB Reactant_set_id>
406600

> <Ligand InChI>
InChI=1S/C19H21N5O3/c1-4-20-19(25)24-13-7-5-12(6-8-13)23-18-14-9-16(26-2)17(27-3)10-15(14)21-11-22-18/h5-11H,4H2,1-3H3,(H2,20,24,25)(H,21,22,23)

> <Ligand InChI Key>
YNCKOZXQTQUWHF-UHFFFAOYSA-N

> <BindingDB MonomerID>
50380467

> <BindingDB Ligand Name>
CHEMBL2016600::N-{4-[6,7-Dimethoxy-quinazolin-4-ylamino]phenyl}-N&#39;-ethylurea (11i)

> <Target Name Assigned by Curator or DataSource>
Epidermal growth factor receptor

> <Target Source Organism According to Curator or DataSource>
Homo sapiens

> <Ki (nM)>


> <IC50 (nM)>
36300

> <Kd (nM)>


> <EC50 (nM)>


> <kon (M-1-s-1)>


> <koff (s-1)>


> <Temp C>


> <Curation/DataSource>
Curated from the literature by BindingDB

> <Article DOI>
10.3109/14756360903169485

> <PubChem AID>


> <Patent Number>


> <Authors>
Garofalo, A; Goossens, L; Lemoine, A; Farce, A; Arlot, Y; Depreux, P

> <Institution>
Université Lille Nord de France

> <Link to Ligand in BindingDB>
http://www.bindingdb.org/bind/chemsearch/marvin/MolStructure.jsp?monomerid=50380467

> <Link to Ligand-Target Pair in BindingDB>
http://www.bindingdb.org/jsp/dbsearch/PrimarySearch_ki.jsp?energyterm=kJ/mole&tag=r21&monomerid=50380467&enzyme=Epidermal+growth+factor+receptor&column=ki&startPg=0&Increment=50&submit=Search

> <Ligand HET ID in PDB>


> <PDB ID(s) for Ligand-Target Complex>


> <PubChem CID>
56954232

> <PubChem SID>
160859550

> <ChEBI ID of Ligand>


> <ChEMBL ID of Ligand>
CHEMBL2016600

> <DrugBank ID of Ligand>


> <IUPHAR_GRAC ID of Ligand>


> <KEGG ID of Ligand>


> <ZINC ID of Ligand>
ZINC84633133

> <Number of Protein Chains in Target (>
1

> <BindingDB Target Chain Sequence>
MRPSGTAGAALLALLAALCPASRALEEKKVCQGTSNKLTQLGTFEDHFLSLQRMFNNCEVVLGNLEITYVQRNYDLSFLKTIQEVAGYVLIALNTVERIPLENLQIIRGNMYYENSYALAVLSNYDANKTGLKELPMRNLQEILHGAVRFSNNPALCNVESIQWRDIVSSDFLSNMSMDFQNHLGSCQKCDPSCPNGSCWGAGEENCQKLTKIICAQQCSGRCRGKSPSDCCHNQCAAGCTGPRESDCLVCRKFRDEATCKDTCPPLMLYNPTTYQMDVNPEGKYSFGATCVKKCPRNYVVTDHGSCVRACGADSYEMEEDGVRKCKKCEGPCRKVCNGIGIGEFKDSLSINATNIKHFKNCTSISGDLHILPVAFRGDSFTHTPPLDPQELDILKTVKEITGFLLIQAWPENRTDLHAFENLEIIRGRTKQHGQFSLAVVSLNITSLGLRSLKEISDGDVIISGNKNLCYANTINWKKLFGTSGQKTKIISNRGENSCKATGQVCHALCSPEGCWGPEPRDCVSCRNVSRGRECVDKCNLLEGEPREFVENSECIQCHPECLPQAMNITCTGRGPDNCIQCAHYIDGPHCVKTCPAGVMGENNTLVWKYADAGHVCHLCHPNCTYGCTGPGLEGCPTNGPKIPSIATGMVGALLLLLVVALGIGLFMRRRHIVRKRTLRRLLQERELVEPLTPSGEAPNQALLRILKETEFKKIKVLGSGAFGTVYKGLWIPEGEKVKIPVAIKELREATSPKANKEILDEAYVMASVDNPHVCRLLGICLTSTVQLITQLMPFGCLLDYVREHKDNIGSQYLLNWCVQIAKGMNYLEDRRLVHRDLAARNVLVKTPQHVKITDFGLAKLLGAEEKEYHAEGGKVPIKWMALESILHRIYTHQSDVWSYGVTVWELMTFGSKPYDGIPASEISSILEKGERLPQPPICTIDVYMIMVKCWMIDADSRPKFRELIIEFSKMARDPQRYLVIQGDERMHLPSPTDSNFYRALMDEEDMDDVVDADEYLIPQQGFFSSPSTSRTPLLSSLSATSNNSTVACIDRNGLQSCPIKEDSFLQRYSSDPTGALTEDSIDDTFLPVPEYINQSVPKRPAGSVQNPVYHNQPLNPAPSRDPHYQDPHSTAVGNPEYLNTVQPTCVNSTFDSPAHWAQKGSHQISLDNPDYQQDFFPKEAKPNGIFKGSTAENAEYLRVAPQSSEFIGA

> <PDB ID(s) of Target Chain>
1IVO,1M14,1M17,1MOX,1XKK,1Z9I,2GS2,2GS6,2ITW,2ITX,2ITY,2J5E,2J5F,2J6M,2RF9,2RGP,3B2V,3BEL,3GOP,3POZ,3QWQ,3VJO,3W2O,3W2P,3W2Q,3W2R,3W2S,3W32,3W33,4G5J,4I23,4JQ7,4JQ8,4JR3,4JRV,4KRO,4LI5,4RJ4,4RJ5,4RJ6,4RJ7,4RJ8,4TKS,4UIP,4UV7,4WKQ,4WRG,4ZAU,5C8K,5C8M,5C8N,5CAL,5CAN,5CAO,5CAP,5CAQ,5CAS,5CAU,5CAV,5EDP,5EDQ,5EDR,5EM5,5EM6,5EM7,5EM8,5FED,5GNK,5HCX,5HCY,5HCZ,5HIB,5HIC,5UGB,5WB7,5WB8,5Y25,6S89,6S8A

> <UniProt (SwissProt) Recommended Name of Target Chain>
Epidermal growth factor receptor

> <UniProt (SwissProt) Entry Name of Target Chain>
EGFR_HUMAN

> <UniProt (SwissProt) Primary ID of Target Chain>
P00533

> <UniProt (SwissProt) Secondary ID(s) of Target Chain>
O00688,O00732,P06268,Q14225,Q68GS5,Q92795,Q9BZS2,Q9GZX1,Q9H2C9,Q9H3C9,Q9UMD7,Q9UMD8,Q9UMG5

> <UniProt (SwissProt) Alternative ID(s) of Target Chain>


> <UniProt (TrEMBL) Submitted Name of Target Chain>


> <UniProt (TrEMBL) Entry Name of Target Chain>


> <UniProt (TrEMBL) Primary ID of Target Chain>


> <UniProt (TrEMBL) Secondary ID(s) of Target Chain>


> <UniProt (TrEMBL) Alternative ID(s) of Target Chain>


> <training label>
4.44009

> <i_lp_mmshare_version>
54117

> <s_epik_input>
W0NIM11PYyhbY0hdMSljKE9bQ0gzXSlbY0hdYyhjMTIpbltjSF1uYzJbTkhdYzNbY0hdW2NIXWMoW2NIXVtjSF0zKVtOSF1DKD1PKVtOSF1bQ0gyXVtDSDNd

> <s_epik_cmdline>
J2VwaWtfcHl0aG9uJywgJy1waHQnLCAnMC4xJywgJy1waCcsICc3LjQnLCAnLXRuJywgJzgnLCAnLW1hJywgJzIwMCcsICctaW1hZScsICc8aW5maWxlLm1hZT4nLCAnLW9tYWUnLCAnPG91dGZpbGUubWFlPic=

> <r_lp_tautomer_probability>
1

> <r_epik_Ionization_Penalty>
  0.0007

> <r_epik_Ionization_Penalty_Charging>
  0.0000

> <r_epik_Ionization_Penalty_Neutral>
  0.0007

> <r_epik_State_Penalty>
  0.0000

> <r_epik_Charging_Adjusted_Penalty>
0

> <i_epik_Tot_Q>
0

> <i_epik_Tot_abs_Q>
0

> <i_f3d_flags>
0

> <s_lp_Force_Field>
OPLS_2005

> <r_lp_Energy>
24.835136

> <b_lp_Chiralities_Consistent>
1

> <s_lp_Variant>
BindingDB_50380467_mol_1-1

> <s_i_glide_gridfile>
struct_1_site_1

> <i_i_glide_lignum>
6

> <i_i_glide_rotatable_bonds>
8

> <r_i_docking_score>
-6.31580236996448

> <r_i_glide_ligand_efficiency>
-0.233918606294981

> <r_i_glide_ligand_efficiency_sa>
-0.701755818113985

> <r_i_glide_ligand_efficiency_ln>
-1.47021466758792

> <r_i_glide_gscore>
-6.31580236996448

> <r_i_glide_lipo>
-2.24337117034276

> <r_i_glide_hbond>
-0.351050750761792

> <r_i_glide_metal>
0

> <r_i_glide_rewards>
-1.48208243048597

> <r_i_glide_evdw>
-40.8334312438965

> <r_i_glide_ecoul>
-6.05096864700317

> <r_i_glide_erotb>
0.713353103661755

> <r_i_glide_esite>
-0.00333426279041132

> <r_i_glide_emodel>
-33.9570367792325

> <r_i_glide_energy>
-46.8843998908997

> <r_i_glide_einternal>
3.60675525665283

> <i_i_glide_confnum>
7

> <i_i_glide_posenum>
8

> <r_i_glide_eff_state_penalty>
0

> <PMID>
20222760

> <r_glide_shape_similarity>
0.708550155162811

> <pH>
7.5

> <s_m_subgroup_title>
505 training

> <s_m_subgroupid>
pocket_pv

> <b_m_subgroup_collapsed>
0

$$$$
BindingDB_50340930_mol_1
                    3D
 Schrodinger Suite 2021-2.
 56 59  0  0  1  0            999 V2000
   26.4459    1.8047   52.5005 C   0  0  0  0  0  0
   27.4514    1.2720   53.3311 C   0  0  0  0  0  0
   27.1145    0.3235   54.3180 C   0  0  0  0  0  0
   25.1061    1.3626   52.6455 C   0  0  0  0  0  0
   24.7671    0.4174   53.6422 C   0  0  0  0  0  0
   25.7772   -0.0664   54.5133 C   0  0  0  0  0  0
   25.4619   -0.8731   55.5443 N   0  0  0  0  0  0
   24.1972   -1.2875   55.6503 C   0  0  0  0  0  0
   23.1910   -0.9608   54.8460 N   0  0  0  0  0  0
   23.4528   -0.0839   53.8535 C   0  0  0  0  0  0
   26.8515    2.7362   51.5652 O   0  0  0  0  0  0
   25.8657    3.6038   51.0108 C   0  0  0  0  0  0
   28.7289    1.7370   53.1410 O   0  0  0  0  0  0
   29.6159    1.6795   54.2483 C   0  0  0  0  0  0
   22.4128    0.3593   53.0258 N   0  0  0  0  0  0
   21.0591    0.0086   52.9482 C   0  0  0  0  0  0
   20.3000    0.6797   51.9617 C   0  0  0  0  0  0
   18.9248    0.4271   51.8073 C   0  0  0  0  0  0
   18.2934   -0.5123   52.6565 C   0  0  0  0  0  0
   19.0540   -1.2133   53.6133 C   0  0  0  0  0  0
   20.4225   -0.9526   53.7731 C   0  0  0  0  0  0
   16.9067   -0.7895   52.6385 N   0  0  0  0  0  0
   15.9216    0.0918   52.4264 C   0  0  0  0  0  0
   14.9142   -0.1138   53.2906 N   0  0  0  0  0  0
   15.9458    0.9712   51.5629 O   0  0  0  0  0  0
   13.5443    0.0076   52.9755 C   0  0  0  0  0  0
   12.6914   -1.0646   53.3361 C   0  0  0  0  0  0
   11.3324   -1.0473   52.9479 C   0  0  0  0  0  0
   10.7951    0.0487   52.2262 C   0  0  0  0  0  0
   11.6417    1.1625   51.9416 C   0  0  0  0  0  0
   13.0096    1.1380   52.3102 C   0  0  0  0  0  0
    9.4729   -0.0524   51.8251 O   0  0  0  0  0  0
    8.8912    1.0524   51.1306 C   0  0  0  0  0  0
   27.8690   -0.0904   54.9676 H   0  0  0  0  0  0
   24.3440    1.7526   51.9918 H   0  0  0  0  0  0
   23.9689   -1.9623   56.4606 H   0  0  0  0  0  0
   26.3606    4.3983   50.4540 H   0  0  0  0  0  0
   25.2114    3.0700   50.3198 H   0  0  0  0  0  0
   25.2615    4.0748   51.7878 H   0  0  0  0  0  0
   30.2889    2.5304   54.1911 H   0  0  0  0  0  0
   29.1077    1.7668   55.2100 H   0  0  0  0  0  0
   30.2102    0.7642   54.2256 H   0  0  0  0  0  0
   22.6965    1.0689   52.3679 H   0  0  0  0  0  0
   20.7683    1.4085   51.3163 H   0  0  0  0  0  0
   18.3719    0.9655   51.0542 H   0  0  0  0  0  0
   18.5796   -1.9373   54.2607 H   0  0  0  0  0  0
   20.9259   -1.5152   54.5376 H   0  0  0  0  0  0
   16.6485   -1.5569   53.2388 H   0  0  0  0  0  0
   15.0944   -0.7797   54.0334 H   0  0  0  0  0  0
   13.0818   -1.9212   53.8680 H   0  0  0  0  0  0
   10.6989   -1.8903   53.1873 H   0  0  0  0  0  0
   11.2673    2.0319   51.4212 H   0  0  0  0  0  0
   13.6396    1.9803   52.0629 H   0  0  0  0  0  0
    7.8608    0.8114   50.8644 H   0  0  0  0  0  0
    9.4304    1.2910   50.2099 H   0  0  0  0  0  0
    8.8745    1.9345   51.7689 H   0  0  0  0  0  0
  1  2  2  0  0  0
  1  4  1  0  0  0
  1 11  1  0  0  0
  2  3  1  0  0  0
  2 13  1  0  0  0
  3  6  2  0  0  0
  3 34  1  0  0  0
  4  5  2  0  0  0
  4 35  1  0  0  0
  5  6  1  0  0  0
  5 10  1  0  0  0
  6  7  1  0  0  0
  7  8  2  0  0  0
  8  9  1  0  0  0
  8 36  1  0  0  0
  9 10  2  0  0  0
 10 15  1  0  0  0
 11 12  1  0  0  0
 12 37  1  0  0  0
 12 38  1  0  0  0
 12 39  1  0  0  0
 13 14  1  0  0  0
 14 40  1  0  0  0
 14 41  1  0  0  0
 14 42  1  0  0  0
 15 16  1  0  0  0
 15 43  1  0  0  0
 16 17  2  0  0  0
 16 21  1  0  0  0
 17 18  1  0  0  0
 17 44  1  0  0  0
 18 19  2  0  0  0
 18 45  1  0  0  0
 19 20  1  0  0  0
 19 22  1  0  0  0
 20 21  2  0  0  0
 20 46  1  0  0  0
 21 47  1  0  0  0
 22 23  1  0  0  0
 22 48  1  0  0  0
 23 24  1  0  0  0
 23 25  2  0  0  0
 24 26  1  0  0  0
 24 49  1  0  0  0
 26 27  2  0  0  0
 26 31  1  0  0  0
 27 28  1  0  0  0
 27 50  1  0  0  0
 28 29  2  0  0  0
 28 51  1  0  0  0
 29 30  1  0  0  0
 29 32  1  0  0  0
 30 31  2  0  0  0
 30 52  1  0  0  0
 31 53  1  0  0  0
 32 33  1  0  0  0
 33 54  1  0  0  0
 33 55  1  0  0  0
 33 56  1  0  0  0
M  END
> <s_m_entry_id>
424

> <s_m_entry_name>
pocket_pv.235

> <s_m_Source_Path>
/home/bortolaa/Project/GT/mario-master/docking/set505protein_struct_1_site_1_set505ligs_train

> <s_m_Source_File>
pocket_pv.maegz

> <i_m_Source_File_Index>
235

> <From>
www.bindingDB.org

> <BindingDB Reactant_set_id>
406588

> <Ligand InChI>
InChI=1S/C24H23N5O4/c1-31-18-10-8-17(9-11-18)29-24(30)28-16-6-4-15(5-7-16)27-23-19-12-21(32-2)22(33-3)13-20(19)25-14-26-23/h4-14H,1-3H3,(H,25,26,27)(H2,28,29,30)

> <Ligand InChI Key>
XENAFWVEGOOYMA-UHFFFAOYSA-N

> <BindingDB MonomerID>
50340930

> <BindingDB Ligand Name>
1-(4-(6,7-dimethoxyquinazolin-4-ylamino)phenyl)-3-(4-methoxyphenyl)urea::CHEMBL1761934::N-{4-[6,7-Dimethoxy-quinazolin-4-ylamino]phenyl}-N&#39;-(4-methoxyphenyl)urea (11e)

> <Target Name Assigned by Curator or DataSource>
Epidermal growth factor receptor

> <Target Source Organism According to Curator or DataSource>
Homo sapiens

> <Ki (nM)>


> <IC50 (nM)>
34500

> <Kd (nM)>


> <EC50 (nM)>


> <kon (M-1-s-1)>


> <koff (s-1)>


> <Temp C>


> <Curation/DataSource>
Curated from the literature by BindingDB

> <Article DOI>
10.3109/14756360903169485

> <PubChem AID>


> <Patent Number>


> <Authors>
Garofalo, A; Goossens, L; Lemoine, A; Farce, A; Arlot, Y; Depreux, P

> <Institution>
Université Lille Nord de France

> <Link to Ligand in BindingDB>
http://www.bindingdb.org/bind/chemsearch/marvin/MolStructure.jsp?monomerid=50340930

> <Link to Ligand-Target Pair in BindingDB>
http://www.bindingdb.org/jsp/dbsearch/PrimarySearch_ki.jsp?energyterm=kJ/mole&tag=r21&monomerid=50340930&enzyme=Epidermal+growth+factor+receptor&column=ki&startPg=0&Increment=50&submit=Search

> <Ligand HET ID in PDB>


> <PDB ID(s) for Ligand-Target Complex>


> <PubChem CID>
54585296

> <PubChem SID>
131343866

> <ChEBI ID of Ligand>


> <ChEMBL ID of Ligand>
CHEMBL1761934

> <DrugBank ID of Ligand>


> <IUPHAR_GRAC ID of Ligand>


> <KEGG ID of Ligand>


> <ZINC ID of Ligand>
ZINC71316000

> <Number of Protein Chains in Target (>
1

> <BindingDB Target Chain Sequence>
MRPSGTAGAALLALLAALCPASRALEEKKVCQGTSNKLTQLGTFEDHFLSLQRMFNNCEVVLGNLEITYVQRNYDLSFLKTIQEVAGYVLIALNTVERIPLENLQIIRGNMYYENSYALAVLSNYDANKTGLKELPMRNLQEILHGAVRFSNNPALCNVESIQWRDIVSSDFLSNMSMDFQNHLGSCQKCDPSCPNGSCWGAGEENCQKLTKIICAQQCSGRCRGKSPSDCCHNQCAAGCTGPRESDCLVCRKFRDEATCKDTCPPLMLYNPTTYQMDVNPEGKYSFGATCVKKCPRNYVVTDHGSCVRACGADSYEMEEDGVRKCKKCEGPCRKVCNGIGIGEFKDSLSINATNIKHFKNCTSISGDLHILPVAFRGDSFTHTPPLDPQELDILKTVKEITGFLLIQAWPENRTDLHAFENLEIIRGRTKQHGQFSLAVVSLNITSLGLRSLKEISDGDVIISGNKNLCYANTINWKKLFGTSGQKTKIISNRGENSCKATGQVCHALCSPEGCWGPEPRDCVSCRNVSRGRECVDKCNLLEGEPREFVENSECIQCHPECLPQAMNITCTGRGPDNCIQCAHYIDGPHCVKTCPAGVMGENNTLVWKYADAGHVCHLCHPNCTYGCTGPGLEGCPTNGPKIPSIATGMVGALLLLLVVALGIGLFMRRRHIVRKRTLRRLLQERELVEPLTPSGEAPNQALLRILKETEFKKIKVLGSGAFGTVYKGLWIPEGEKVKIPVAIKELREATSPKANKEILDEAYVMASVDNPHVCRLLGICLTSTVQLITQLMPFGCLLDYVREHKDNIGSQYLLNWCVQIAKGMNYLEDRRLVHRDLAARNVLVKTPQHVKITDFGLAKLLGAEEKEYHAEGGKVPIKWMALESILHRIYTHQSDVWSYGVTVWELMTFGSKPYDGIPASEISSILEKGERLPQPPICTIDVYMIMVKCWMIDADSRPKFRELIIEFSKMARDPQRYLVIQGDERMHLPSPTDSNFYRALMDEEDMDDVVDADEYLIPQQGFFSSPSTSRTPLLSSLSATSNNSTVACIDRNGLQSCPIKEDSFLQRYSSDPTGALTEDSIDDTFLPVPEYINQSVPKRPAGSVQNPVYHNQPLNPAPSRDPHYQDPHSTAVGNPEYLNTVQPTCVNSTFDSPAHWAQKGSHQISLDNPDYQQDFFPKEAKPNGIFKGSTAENAEYLRVAPQSSEFIGA

> <PDB ID(s) of Target Chain>
1IVO,1M14,1M17,1MOX,1XKK,1Z9I,2GS2,2GS6,2ITW,2ITX,2ITY,2J5E,2J5F,2J6M,2RF9,2RGP,3B2V,3BEL,3GOP,3POZ,3QWQ,3VJO,3W2O,3W2P,3W2Q,3W2R,3W2S,3W32,3W33,4G5J,4I23,4JQ7,4JQ8,4JR3,4JRV,4KRO,4LI5,4RJ4,4RJ5,4RJ6,4RJ7,4RJ8,4TKS,4UIP,4UV7,4WKQ,4WRG,4ZAU,5C8K,5C8M,5C8N,5CAL,5CAN,5CAO,5CAP,5CAQ,5CAS,5CAU,5CAV,5EDP,5EDQ,5EDR,5EM5,5EM6,5EM7,5EM8,5FED,5GNK,5HCX,5HCY,5HCZ,5HIB,5HIC,5UGB,5WB7,5WB8,5Y25,6S89,6S8A

> <UniProt (SwissProt) Recommended Name of Target Chain>
Epidermal growth factor receptor

> <UniProt (SwissProt) Entry Name of Target Chain>
EGFR_HUMAN

> <UniProt (SwissProt) Primary ID of Target Chain>
P00533

> <UniProt (SwissProt) Secondary ID(s) of Target Chain>
O00688,O00732,P06268,Q14225,Q68GS5,Q92795,Q9BZS2,Q9GZX1,Q9H2C9,Q9H3C9,Q9UMD7,Q9UMD8,Q9UMG5

> <UniProt (SwissProt) Alternative ID(s) of Target Chain>


> <UniProt (TrEMBL) Submitted Name of Target Chain>


> <UniProt (TrEMBL) Entry Name of Target Chain>


> <UniProt (TrEMBL) Primary ID of Target Chain>


> <UniProt (TrEMBL) Secondary ID(s) of Target Chain>


> <UniProt (TrEMBL) Alternative ID(s) of Target Chain>


> <training label>
4.46218

> <i_lp_mmshare_version>
54117

> <s_epik_input>
W0NIM11PYyhbY0hdMSljKE9bQ0gzXSlbY0hdYyhjMTIpbltjSF1uYzJbTkhdYzNbY0hdW2NIXWMoW2NIXVtjSF0zKVtOSF1DKD1PKVtOSF1jNFtjSF1bY0hdYyhbY0hdW2NIXTQpT1tDSDNd

> <s_epik_cmdline>
J2VwaWtfcHl0aG9uJywgJy1waHQnLCAnMC4xJywgJy1waCcsICc3LjQnLCAnLXRuJywgJzgnLCAnLW1hJywgJzIwMCcsICctaW1hZScsICc8aW5maWxlLm1hZT4nLCAnLW9tYWUnLCAnPG91dGZpbGUubWFlPic=

> <r_lp_tautomer_probability>
1

> <r_epik_Ionization_Penalty>
  0.0007

> <r_epik_Ionization_Penalty_Charging>
  0.0000

> <r_epik_Ionization_Penalty_Neutral>
  0.0007

> <r_epik_State_Penalty>
  0.0000

> <r_epik_Charging_Adjusted_Penalty>
0

> <i_epik_Tot_Q>
0

> <i_epik_Tot_abs_Q>
0

> <i_f3d_flags>
0

> <s_lp_Force_Field>
OPLS_2005

> <r_lp_Energy>
39.410305

> <b_lp_Chiralities_Consistent>
1

> <s_lp_Variant>
BindingDB_50340930_mol_1-1

> <s_i_glide_gridfile>
struct_1_site_1

> <i_i_glide_lignum>
8

> <i_i_glide_rotatable_bonds>
9

> <r_i_docking_score>
-6.31528268595646

> <r_i_glide_ligand_efficiency>
-0.191372202604741

> <r_i_glide_ligand_efficiency_sa>
-0.6138329089462

> <r_i_glide_ligand_efficiency_ln>
-1.40448617057297

> <r_i_glide_gscore>
-6.31528268595646

> <r_i_glide_lipo>
-2.16348253297885

> <r_i_glide_hbond>
-0.48721397828862

> <r_i_glide_metal>
0

> <r_i_glide_rewards>
-0.924499720018727

> <r_i_glide_evdw>
-43.6805458068848

> <r_i_glide_ecoul>
-7.72813415527344

> <r_i_glide_erotb>
0.604960587458131

> <r_i_glide_esite>
-0.00179962849314381

> <r_i_glide_emodel>
-25.8625178465129

> <r_i_glide_energy>
-51.4086799621582

> <r_i_glide_einternal>
11.4212141036987

> <i_i_glide_confnum>
16

> <i_i_glide_posenum>
91

> <r_i_glide_eff_state_penalty>
0

> <PMID>
20222760

> <r_glide_shape_similarity>
0.600709140300751

> <pH>
7.5

> <s_m_subgroup_title>
505 training

> <s_m_subgroupid>
pocket_pv

> <b_m_subgroup_collapsed>
0

$$$$
BindingDB_50380468_mol_1
                    3D
 Schrodinger Suite 2021-2.
 54 56  0  0  1  0            999 V2000
   26.5074    1.7631   52.5915 C   0  0  0  0  0  0
   27.4915    1.1826   53.4259 C   0  0  0  0  0  0
   27.0911    0.2545   54.4085 C   0  0  0  0  0  0
   25.1460    1.3487   52.6951 C   0  0  0  0  0  0
   26.9499    2.7184   51.6938 O   0  0  0  0  0  0
   25.9864    3.5775   51.0871 C   0  0  0  0  0  0
   28.8018    1.5857   53.2756 O   0  0  0  0  0  0
   29.7217    1.2128   54.2980 C   0  0  0  0  0  0
   24.7573    0.3984   53.6737 C   0  0  0  0  0  0
   25.7385   -0.0950   54.5752 C   0  0  0  0  0  0
   25.3902   -0.8840   55.6114 N   0  0  0  0  0  0
   24.1255   -1.3019   55.6791 C   0  0  0  0  0  0
   23.1504   -0.9808   54.8381 N   0  0  0  0  0  0
   23.4317   -0.1007   53.8517 C   0  0  0  0  0  0
   22.3929    0.3156   53.0022 N   0  0  0  0  0  0
   21.0269   -0.0185   52.9686 C   0  0  0  0  0  0
   20.3904   -0.9335   53.8486 C   0  0  0  0  0  0
   19.0057   -1.1496   53.7696 C   0  0  0  0  0  0
   18.2234   -0.4727   52.8051 C   0  0  0  0  0  0
   18.8538    0.4068   51.8863 C   0  0  0  0  0  0
   20.2429    0.6285   51.9803 C   0  0  0  0  0  0
   16.8227   -0.7212   52.8717 N   0  0  0  0  0  0
   15.8046   -0.0619   52.2946 C   0  0  0  0  0  0
   14.6597   -0.2735   52.9706 N   0  0  0  0  0  0
   15.8940    0.6302   51.2810 O   0  0  0  0  0  0
   13.3395    0.2349   52.6109 C   0  0  0  0  0  0
   12.9353    1.4649   53.4577 C   0  0  0  0  0  0
   13.7326    2.7537   53.1356 C   0  0  0  0  0  0
   13.2021    4.0102   53.8658 C   0  0  0  0  0  0
   27.8004   -0.1819   55.0910 H   0  0  0  0  0  0
   24.4036    1.7606   52.0296 H   0  0  0  0  0  0
   26.5009    4.3876   50.5655 H   0  0  0  0  0  0
   25.3874    3.0362   50.3543 H   0  0  0  0  0  0
   25.3254    4.0324   51.8262 H   0  0  0  0  0  0
   30.6874    1.6976   54.1747 H   0  0  0  0  0  0
   29.3579    1.5299   55.2767 H   0  0  0  0  0  0
   29.8888    0.1343   54.3033 H   0  0  0  0  0  0
   23.8715   -1.9726   56.4871 H   0  0  0  0  0  0
   22.6727    1.0024   52.3174 H   0  0  0  0  0  0
   20.8925   -1.4846   54.6198 H   0  0  0  0  0  0
   18.5407   -1.8281   54.4712 H   0  0  0  0  0  0
   18.2925    0.9353   51.1300 H   0  0  0  0  0  0
   20.7040    1.3204   51.2925 H   0  0  0  0  0  0
   16.5471   -1.3462   53.6184 H   0  0  0  0  0  0
   14.6890   -0.8242   53.8235 H   0  0  0  0  0  0
   12.6224   -0.5695   52.7785 H   0  0  0  0  0  0
   13.2863    0.4713   51.5460 H   0  0  0  0  0  0
   13.0267    1.2299   54.5189 H   0  0  0  0  0  0
   11.8769    1.6649   53.2871 H   0  0  0  0  0  0
   13.7053    2.9347   52.0612 H   0  0  0  0  0  0
   14.7796    2.6072   53.3934 H   0  0  0  0  0  0
   13.8104    4.8839   53.6276 H   0  0  0  0  0  0
   13.2157    3.8781   54.9485 H   0  0  0  0  0  0
   12.1759    4.2327   53.5700 H   0  0  0  0  0  0
  1  2  2  0  0  0
  1  4  1  0  0  0
  1  5  1  0  0  0
  2  3  1  0  0  0
  2  7  1  0  0  0
  3 10  2  0  0  0
  3 30  1  0  0  0
  4  9  2  0  0  0
  4 31  1  0  0  0
  5  6  1  0  0  0
  6 32  1  0  0  0
  6 33  1  0  0  0
  6 34  1  0  0  0
  7  8  1  0  0  0
  8 35  1  0  0  0
  8 36  1  0  0  0
  8 37  1  0  0  0
  9 10  1  0  0  0
  9 14  1  0  0  0
 10 11  1  0  0  0
 11 12  2  0  0  0
 12 13  1  0  0  0
 12 38  1  0  0  0
 13 14  2  0  0  0
 14 15  1  0  0  0
 15 16  1  0  0  0
 15 39  1  0  0  0
 16 17  2  0  0  0
 16 21  1  0  0  0
 17 18  1  0  0  0
 17 40  1  0  0  0
 18 19  2  0  0  0
 18 41  1  0  0  0
 19 20  1  0  0  0
 19 22  1  0  0  0
 20 21  2  0  0  0
 20 42  1  0  0  0
 21 43  1  0  0  0
 22 23  1  0  0  0
 22 44  1  0  0  0
 23 24  1  0  0  0
 23 25  2  0  0  0
 24 26  1  0  0  0
 24 45  1  0  0  0
 26 27  1  0  0  0
 26 46  1  0  0  0
 26 47  1  0  0  0
 27 28  1  0  0  0
 27 48  1  0  0  0
 27 49  1  0  0  0
 28 29  1  0  0  0
 28 50  1  0  0  0
 28 51  1  0  0  0
 29 52  1  0  0  0
 29 53  1  0  0  0
 29 54  1  0  0  0
M  END
> <s_m_entry_id>
425

> <s_m_entry_name>
pocket_pv.236

> <s_m_Source_Path>
/home/bortolaa/Project/GT/mario-master/docking/set505protein_struct_1_site_1_set505ligs_train

> <s_m_Source_File>
pocket_pv.maegz

> <i_m_Source_File_Index>
236

> <From>
www.bindingDB.org

> <BindingDB Reactant_set_id>
406597

> <Ligand InChI>
InChI=1S/C21H25N5O3/c1-4-5-10-22-21(27)26-15-8-6-14(7-9-15)25-20-16-11-18(28-2)19(29-3)12-17(16)23-13-24-20/h6-9,11-13H,4-5,10H2,1-3H3,(H2,22,26,27)(H,23,24,25)

> <Ligand InChI Key>
ZXRPRSOBABQJOG-UHFFFAOYSA-N

> <BindingDB MonomerID>
50380468

> <BindingDB Ligand Name>
CHEMBL2018763::N-{4-[6,7-Dimethoxy-quinazolin-4-ylamino]phenyl}-N&#39;-butylurea (11h)

> <Target Name Assigned by Curator or DataSource>
Epidermal growth factor receptor

> <Target Source Organism According to Curator or DataSource>
Homo sapiens

> <Ki (nM)>


> <IC50 (nM)>
30600

> <Kd (nM)>


> <EC50 (nM)>


> <kon (M-1-s-1)>


> <koff (s-1)>


> <Temp C>


> <Curation/DataSource>
Curated from the literature by BindingDB

> <Article DOI>
10.3109/14756360903169485

> <PubChem AID>


> <Patent Number>


> <Authors>
Garofalo, A; Goossens, L; Lemoine, A; Farce, A; Arlot, Y; Depreux, P

> <Institution>
Université Lille Nord de France

> <Link to Ligand in BindingDB>
http://www.bindingdb.org/bind/chemsearch/marvin/MolStructure.jsp?monomerid=50380468

> <Link to Ligand-Target Pair in BindingDB>
http://www.bindingdb.org/jsp/dbsearch/PrimarySearch_ki.jsp?energyterm=kJ/mole&tag=r21&monomerid=50380468&enzyme=Epidermal+growth+factor+receptor&column=ki&startPg=0&Increment=50&submit=Search

> <Ligand HET ID in PDB>


> <PDB ID(s) for Ligand-Target Complex>


> <PubChem CID>
70687611

> <PubChem SID>
160859551

> <ChEBI ID of Ligand>


> <ChEMBL ID of Ligand>
CHEMBL2018763

> <DrugBank ID of Ligand>


> <IUPHAR_GRAC ID of Ligand>


> <KEGG ID of Ligand>


> <ZINC ID of Ligand>
ZINC84633135

> <Number of Protein Chains in Target (>
1

> <BindingDB Target Chain Sequence>
MRPSGTAGAALLALLAALCPASRALEEKKVCQGTSNKLTQLGTFEDHFLSLQRMFNNCEVVLGNLEITYVQRNYDLSFLKTIQEVAGYVLIALNTVERIPLENLQIIRGNMYYENSYALAVLSNYDANKTGLKELPMRNLQEILHGAVRFSNNPALCNVESIQWRDIVSSDFLSNMSMDFQNHLGSCQKCDPSCPNGSCWGAGEENCQKLTKIICAQQCSGRCRGKSPSDCCHNQCAAGCTGPRESDCLVCRKFRDEATCKDTCPPLMLYNPTTYQMDVNPEGKYSFGATCVKKCPRNYVVTDHGSCVRACGADSYEMEEDGVRKCKKCEGPCRKVCNGIGIGEFKDSLSINATNIKHFKNCTSISGDLHILPVAFRGDSFTHTPPLDPQELDILKTVKEITGFLLIQAWPENRTDLHAFENLEIIRGRTKQHGQFSLAVVSLNITSLGLRSLKEISDGDVIISGNKNLCYANTINWKKLFGTSGQKTKIISNRGENSCKATGQVCHALCSPEGCWGPEPRDCVSCRNVSRGRECVDKCNLLEGEPREFVENSECIQCHPECLPQAMNITCTGRGPDNCIQCAHYIDGPHCVKTCPAGVMGENNTLVWKYADAGHVCHLCHPNCTYGCTGPGLEGCPTNGPKIPSIATGMVGALLLLLVVALGIGLFMRRRHIVRKRTLRRLLQERELVEPLTPSGEAPNQALLRILKETEFKKIKVLGSGAFGTVYKGLWIPEGEKVKIPVAIKELREATSPKANKEILDEAYVMASVDNPHVCRLLGICLTSTVQLITQLMPFGCLLDYVREHKDNIGSQYLLNWCVQIAKGMNYLEDRRLVHRDLAARNVLVKTPQHVKITDFGLAKLLGAEEKEYHAEGGKVPIKWMALESILHRIYTHQSDVWSYGVTVWELMTFGSKPYDGIPASEISSILEKGERLPQPPICTIDVYMIMVKCWMIDADSRPKFRELIIEFSKMARDPQRYLVIQGDERMHLPSPTDSNFYRALMDEEDMDDVVDADEYLIPQQGFFSSPSTSRTPLLSSLSATSNNSTVACIDRNGLQSCPIKEDSFLQRYSSDPTGALTEDSIDDTFLPVPEYINQSVPKRPAGSVQNPVYHNQPLNPAPSRDPHYQDPHSTAVGNPEYLNTVQPTCVNSTFDSPAHWAQKGSHQISLDNPDYQQDFFPKEAKPNGIFKGSTAENAEYLRVAPQSSEFIGA

> <PDB ID(s) of Target Chain>
1IVO,1M14,1M17,1MOX,1XKK,1Z9I,2GS2,2GS6,2ITW,2ITX,2ITY,2J5E,2J5F,2J6M,2RF9,2RGP,3B2V,3BEL,3GOP,3POZ,3QWQ,3VJO,3W2O,3W2P,3W2Q,3W2R,3W2S,3W32,3W33,4G5J,4I23,4JQ7,4JQ8,4JR3,4JRV,4KRO,4LI5,4RJ4,4RJ5,4RJ6,4RJ7,4RJ8,4TKS,4UIP,4UV7,4WKQ,4WRG,4ZAU,5C8K,5C8M,5C8N,5CAL,5CAN,5CAO,5CAP,5CAQ,5CAS,5CAU,5CAV,5EDP,5EDQ,5EDR,5EM5,5EM6,5EM7,5EM8,5FED,5GNK,5HCX,5HCY,5HCZ,5HIB,5HIC,5UGB,5WB7,5WB8,5Y25,6S89,6S8A

> <UniProt (SwissProt) Recommended Name of Target Chain>
Epidermal growth factor receptor

> <UniProt (SwissProt) Entry Name of Target Chain>
EGFR_HUMAN

> <UniProt (SwissProt) Primary ID of Target Chain>
P00533

> <UniProt (SwissProt) Secondary ID(s) of Target Chain>
O00688,O00732,P06268,Q14225,Q68GS5,Q92795,Q9BZS2,Q9GZX1,Q9H2C9,Q9H3C9,Q9UMD7,Q9UMD8,Q9UMG5

> <UniProt (SwissProt) Alternative ID(s) of Target Chain>


> <UniProt (TrEMBL) Submitted Name of Target Chain>


> <UniProt (TrEMBL) Entry Name of Target Chain>


> <UniProt (TrEMBL) Primary ID of Target Chain>


> <UniProt (TrEMBL) Secondary ID(s) of Target Chain>


> <UniProt (TrEMBL) Alternative ID(s) of Target Chain>


> <training label>
4.51428

> <i_lp_mmshare_version>
54117

> <s_epik_input>
W0NIM11PYyhbY0hdMSljKE9bQ0gzXSlbY0hdYyhjMTIpbltjSF1uYzJbTkhdYzNbY0hdW2NIXWMoW2NIXVtjSF0zKVtOSF1DKD1PKVtOSF1bQ0gyXVtDSDJdW0NIMl1bQ0gzXQ==

> <s_epik_cmdline>
J2VwaWtfcHl0aG9uJywgJy1waHQnLCAnMC4xJywgJy1waCcsICc3LjQnLCAnLXRuJywgJzgnLCAnLW1hJywgJzIwMCcsICctaW1hZScsICc8aW5maWxlLm1hZT4nLCAnLW9tYWUnLCAnPG91dGZpbGUubWFlPic=

> <r_lp_tautomer_probability>
1

> <r_epik_Ionization_Penalty>
  0.0007

> <r_epik_Ionization_Penalty_Charging>
  0.0000

> <r_epik_Ionization_Penalty_Neutral>
  0.0007

> <r_epik_State_Penalty>
  0.0000

> <r_epik_Charging_Adjusted_Penalty>
0

> <i_epik_Tot_Q>
0

> <i_epik_Tot_abs_Q>
0

> <i_f3d_flags>
0

> <s_lp_Force_Field>
OPLS_2005

> <r_lp_Energy>
27.657303

> <b_lp_Chiralities_Consistent>
1

> <s_lp_Variant>
BindingDB_50380468_mol_1-1

> <s_i_glide_gridfile>
struct_1_site_1

> <i_i_glide_lignum>
10

> <i_i_glide_rotatable_bonds>
10

> <r_i_docking_score>
-6.31347195893145

> <r_i_glide_ligand_efficiency>
-0.217705929618326

> <r_i_glide_ligand_efficiency_sa>
-0.668861589867209

> <r_i_glide_ligand_efficiency_ln>
-1.44562498275987

> <r_i_glide_gscore>
-6.31347195893145

> <r_i_glide_lipo>
-2.41567966081839

> <r_i_glide_hbond>
-0.401496891522647

> <r_i_glide_metal>
0

> <r_i_glide_rewards>
-1.24534831606555

> <r_i_glide_evdw>
-43.6740188598633

> <r_i_glide_ecoul>
-6.25743865966797

> <r_i_glide_erotb>
0.875312308153548

> <r_i_glide_esite>
-0.0039426567350547

> <r_i_glide_emodel>
-33.6402635661517

> <r_i_glide_energy>
-49.9314575195312

> <r_i_glide_einternal>
7.79554891586304

> <i_i_glide_confnum>
30

> <i_i_glide_posenum>
303

> <r_i_glide_eff_state_penalty>
0

> <PMID>
20222760

> <r_glide_shape_similarity>
0.691414177417755

> <pH>
7.5

> <s_m_subgroup_title>
505 training

> <s_m_subgroupid>
pocket_pv

> <b_m_subgroup_collapsed>
0

$$$$
BindingDB_50248464_mol_1
                    3D
 Schrodinger Suite 2021-2.
 52 56  0  0  1  0            999 V2000
   15.9073    0.6554   51.5947 N   0  0  0  0  0  0
   15.9027   -0.2441   52.5755 C   0  0  0  0  0  0
   16.9813   -0.8104   53.1197 N   0  0  0  0  0  0
   18.1970   -0.4622   52.6493 C   0  0  0  0  0  0
   18.3227    0.4203   51.5281 C   0  0  0  0  0  0
   19.5387    0.7312   50.8540 C   0  0  0  0  0  0
   19.5952    1.6927   49.8084 C   0  0  0  0  0  0
   18.3980    2.3202   49.3887 C   0  0  0  0  0  0
   17.1645    1.9595   50.0112 C   0  0  0  0  0  0
   17.1038    1.0030   51.0567 C   0  0  0  0  0  0
   19.2380   -1.0234   53.4115 N   0  0  0  0  0  0
   18.5043    3.2457   48.3670 O   0  0  0  0  0  0
   17.3172    3.8780   47.9013 C   0  0  0  0  0  0
   20.7537    2.0521   49.1508 O   0  0  0  0  0  0
   21.9789    1.4571   49.5699 C   0  0  0  0  0  0
   20.5516   -0.5890   53.6593 C   0  0  0  0  0  0
   21.0128    0.7101   53.3703 C   0  0  0  0  0  0
   22.3929    0.9798   53.3711 C   0  0  0  0  0  0
   23.3204   -0.0016   53.7915 C   0  0  0  0  0  0
   22.8296   -1.2236   54.3085 C   0  0  0  0  0  0
   21.4540   -1.5093   54.2327 C   0  0  0  0  0  0
   25.6972   -0.8161   53.6229 C   0  0  0  0  0  0
   24.6944    0.2526   53.7043 N   0  0  0  0  0  0
   25.2497    1.5789   53.4019 C   0  0  0  0  0  0
   26.7243    1.3198   53.3932 C   0  0  0  0  0  0
   27.7518    2.2730   53.3738 C   0  0  0  0  0  0
   29.0775    1.7840   53.4311 C   0  0  0  0  0  0
   29.3527    0.3876   53.4897 C   0  0  0  0  0  0
   28.3009   -0.5576   53.5064 C   0  0  0  0  0  0
   26.9861   -0.0501   53.4810 C   0  0  0  0  0  0
   14.9438   -0.5210   52.9828 H   0  0  0  0  0  0
   20.4295    0.1844   51.1113 H   0  0  0  0  0  0
   16.2312    2.4014   49.6950 H   0  0  0  0  0  0
   18.9162   -1.7430   54.0435 H   0  0  0  0  0  0
   17.5609    4.5709   47.0971 H   0  0  0  0  0  0
   16.6105    3.1491   47.5012 H   0  0  0  0  0  0
   16.8306    4.4520   48.6913 H   0  0  0  0  0  0
   22.7909    1.8513   48.9645 H   0  0  0  0  0  0
   21.9691    0.3706   49.4429 H   0  0  0  0  0  0
   22.2008    1.6959   50.6107 H   0  0  0  0  0  0
   20.3398    1.4967   53.0689 H   0  0  0  0  0  0
   22.7171    1.9521   53.0389 H   0  0  0  0  0  0
   23.5037   -1.9688   54.7053 H   0  0  0  0  0  0
   21.0995   -2.4654   54.5560 H   0  0  0  0  0  0
   25.7185   -1.4156   54.5327 H   0  0  0  0  0  0
   25.5366   -1.4561   52.7554 H   0  0  0  0  0  0
   24.9160    1.9441   52.4288 H   0  0  0  0  0  0
   25.0035    2.3115   54.1742 H   0  0  0  0  0  0
   27.5384    3.3310   53.3270 H   0  0  0  0  0  0
   29.8895    2.4943   53.4328 H   0  0  0  0  0  0
   30.3806    0.0541   53.5277 H   0  0  0  0  0  0
   28.4978   -1.6181   53.5750 H   0  0  0  0  0  0
  1  2  1  0  0  0
  1 10  2  0  0  0
  2  3  2  0  0  0
  2 31  1  0  0  0
  3  4  1  0  0  0
  4  5  2  0  0  0
  4 11  1  0  0  0
  5  6  1  0  0  0
  5 10  1  0  0  0
  6  7  2  0  0  0
  6 32  1  0  0  0
  7  8  1  0  0  0
  7 14  1  0  0  0
  8  9  2  0  0  0
  8 12  1  0  0  0
  9 10  1  0  0  0
  9 33  1  0  0  0
 11 16  1  0  0  0
 11 34  1  0  0  0
 12 13  1  0  0  0
 13 35  1  0  0  0
 13 36  1  0  0  0
 13 37  1  0  0  0
 14 15  1  0  0  0
 15 38  1  0  0  0
 15 39  1  0  0  0
 15 40  1  0  0  0
 16 17  2  0  0  0
 16 21  1  0  0  0
 17 18  1  0  0  0
 17 41  1  0  0  0
 18 19  2  0  0  0
 18 42  1  0  0  0
 19 20  1  0  0  0
 19 23  1  0  0  0
 20 21  2  0  0  0
 20 43  1  0  0  0
 21 44  1  0  0  0
 22 23  1  0  0  0
 22 30  1  0  0  0
 22 45  1  0  0  0
 22 46  1  0  0  0
 23 24  1  0  0  0
 24 25  1  0  0  0
 24 47  1  0  0  0
 24 48  1  0  0  0
 25 26  2  0  0  0
 25 30  1  0  0  0
 26 27  1  0  0  0
 26 49  1  0  0  0
 27 28  2  0  0  0
 27 50  1  0  0  0
 28 29  1  0  0  0
 28 51  1  0  0  0
 29 30  2  0  0  0
 29 52  1  0  0  0
M  END
> <s_m_entry_id>
426

> <s_m_entry_name>
pocket_pv.237

> <s_m_Source_Path>
/home/bortolaa/Project/GT/mario-master/docking/set505protein_struct_1_site_1_set505ligs_train

> <s_m_Source_File>
pocket_pv.maegz

> <i_m_Source_File_Index>
237

> <From>
www.bindingDB.org

> <BindingDB Reactant_set_id>
50449842

> <Ligand InChI>
InChI=1S/C24H22N4O2/c1-29-22-11-20-21(12-23(22)30-2)25-15-26-24(20)27-18-7-9-19(10-8-18)28-13-16-5-3-4-6-17(16)14-28/h3-12,15H,13-14H2,1-2H3,(H,25,26,27)

> <Ligand InChI Key>
YDFSDWFVXLJPNL-UHFFFAOYSA-N

> <BindingDB MonomerID>
50248464

> <BindingDB Ligand Name>
CHEMBL491677::N-[4-(isoindolin-2-yl)phenyl]-6',7'-dimethoxyquinazolin-4'-amine

> <Target Name Assigned by Curator or DataSource>
Epidermal growth factor receptor

> <Target Source Organism According to Curator or DataSource>
Homo sapiens

> <Ki (nM)>


> <IC50 (nM)>
1600

> <Kd (nM)>


> <EC50 (nM)>


> <kon (M-1-s-1)>


> <koff (s-1)>


> <pH>


> <Temp C>


> <Curation/DataSource>
ChEMBL

> <Article DOI>
10.1016/j.bmcl.2009.01.054

> <PubChem AID>


> <Patent Number>


> <Authors>
Tasler, S; Muller, O; Wieber, T; Herz, T; Krauss, R; Totzke, F; Kubbutat, MH; Schachtele, C

> <Institution>
4SC AG

> <Link to Ligand in BindingDB>
http://www.bindingdb.org/bind/chemsearch/marvin/MolStructure.jsp?monomerid=50248464

> <Link to Ligand-Target Pair in BindingDB>
http://www.bindingdb.org/jsp/dbsearch/PrimarySearch_ki.jsp?energyterm=kJ/mole&tag=r21&monomerid=50248464&enzyme=Epidermal+growth+factor+receptor&column=ki&startPg=0&Increment=50&submit=Search

> <Ligand HET ID in PDB>


> <PDB ID(s) for Ligand-Target Complex>


> <PubChem CID>
44565069

> <PubChem SID>
104103119

> <ChEBI ID of Ligand>


> <ChEMBL ID of Ligand>
CHEMBL491677

> <DrugBank ID of Ligand>


> <IUPHAR_GRAC ID of Ligand>


> <KEGG ID of Ligand>


> <ZINC ID of Ligand>
ZINC45498860

> <Number of Protein Chains in Target (>
1

> <BindingDB Target Chain Sequence>
MRPSGTAGAALLALLAALCPASRALEEKKVCQGTSNKLTQLGTFEDHFLSLQRMFNNCEVVLGNLEITYVQRNYDLSFLKTIQEVAGYVLIALNTVERIPLENLQIIRGNMYYENSYALAVLSNYDANKTGLKELPMRNLQEILHGAVRFSNNPALCNVESIQWRDIVSSDFLSNMSMDFQNHLGSCQKCDPSCPNGSCWGAGEENCQKLTKIICAQQCSGRCRGKSPSDCCHNQCAAGCTGPRESDCLVCRKFRDEATCKDTCPPLMLYNPTTYQMDVNPEGKYSFGATCVKKCPRNYVVTDHGSCVRACGADSYEMEEDGVRKCKKCEGPCRKVCNGIGIGEFKDSLSINATNIKHFKNCTSISGDLHILPVAFRGDSFTHTPPLDPQELDILKTVKEITGFLLIQAWPENRTDLHAFENLEIIRGRTKQHGQFSLAVVSLNITSLGLRSLKEISDGDVIISGNKNLCYANTINWKKLFGTSGQKTKIISNRGENSCKATGQVCHALCSPEGCWGPEPRDCVSCRNVSRGRECVDKCNLLEGEPREFVENSECIQCHPECLPQAMNITCTGRGPDNCIQCAHYIDGPHCVKTCPAGVMGENNTLVWKYADAGHVCHLCHPNCTYGCTGPGLEGCPTNGPKIPSIATGMVGALLLLLVVALGIGLFMRRRHIVRKRTLRRLLQERELVEPLTPSGEAPNQALLRILKETEFKKIKVLGSGAFGTVYKGLWIPEGEKVKIPVAIKELREATSPKANKEILDEAYVMASVDNPHVCRLLGICLTSTVQLITQLMPFGCLLDYVREHKDNIGSQYLLNWCVQIAKGMNYLEDRRLVHRDLAARNVLVKTPQHVKITDFGLAKLLGAEEKEYHAEGGKVPIKWMALESILHRIYTHQSDVWSYGVTVWELMTFGSKPYDGIPASEISSILEKGERLPQPPICTIDVYMIMVKCWMIDADSRPKFRELIIEFSKMARDPQRYLVIQGDERMHLPSPTDSNFYRALMDEEDMDDVVDADEYLIPQQGFFSSPSTSRTPLLSSLSATSNNSTVACIDRNGLQSCPIKEDSFLQRYSSDPTGALTEDSIDDTFLPVPEYINQSVPKRPAGSVQNPVYHNQPLNPAPSRDPHYQDPHSTAVGNPEYLNTVQPTCVNSTFDSPAHWAQKGSHQISLDNPDYQQDFFPKEAKPNGIFKGSTAENAEYLRVAPQSSEFIGA

> <PDB ID(s) of Target Chain>
1IVO,1M14,1M17,1MOX,1XKK,1Z9I,2GS2,2GS6,2ITW,2ITX,2ITY,2J5E,2J5F,2J6M,2RF9,2RGP,3B2V,3BEL,3GOP,3POZ,3QWQ,3VJO,3W2O,3W2P,3W2Q,3W2R,3W2S,3W32,3W33,4G5J,4I23,4JQ7,4JQ8,4JR3,4JRV,4KRO,4LI5,4RJ4,4RJ5,4RJ6,4RJ7,4RJ8,4TKS,4UIP,4UV7,4WKQ,4WRG,4ZAU,5C8K,5C8M,5C8N,5CAL,5CAN,5CAO,5CAP,5CAQ,5CAS,5CAU,5CAV,5EDP,5EDQ,5EDR,5EM5,5EM6,5EM7,5EM8,5FED,5GNK,5HCX,5HCY,5HCZ,5HIB,5HIC,5UGB,5WB7,5WB8,5Y25,6S89,6S8A

> <UniProt (SwissProt) Recommended Name of Target Chain>
Epidermal growth factor receptor

> <UniProt (SwissProt) Entry Name of Target Chain>
EGFR_HUMAN

> <UniProt (SwissProt) Primary ID of Target Chain>
P00533

> <UniProt (SwissProt) Secondary ID(s) of Target Chain>
O00688,O00732,P06268,Q14225,Q68GS5,Q92795,Q9BZS2,Q9GZX1,Q9H2C9,Q9H3C9,Q9UMD7,Q9UMD8,Q9UMG5

> <UniProt (SwissProt) Alternative ID(s) of Target Chain>


> <UniProt (TrEMBL) Submitted Name of Target Chain>


> <UniProt (TrEMBL) Entry Name of Target Chain>


> <UniProt (TrEMBL) Primary ID of Target Chain>


> <UniProt (TrEMBL) Secondary ID(s) of Target Chain>


> <UniProt (TrEMBL) Alternative ID(s) of Target Chain>


> <training label>
5.79588

> <i_lp_mmshare_version>
54117

> <s_epik_input>
W0NIM11PYyhbY0hdMSljKE9bQ0gzXSlbY0hdYyhjMTIpbltjSF1uYzJbTkhdYzNbY0hdW2NIXWMoW2NIXVtjSF0zKU4oW0NIMl00KVtDSDJdYyhjNDUpW2NIXVtjSF1bY0hdW2NIXTU=

> <s_epik_cmdline>
J2VwaWtfcHl0aG9uJywgJy1waHQnLCAnMC4xJywgJy1waCcsICc3LjQnLCAnLXRuJywgJzgnLCAnLW1hJywgJzIwMCcsICctaW1hZScsICc8aW5maWxlLm1hZT4nLCAnLW9tYWUnLCAnPG91dGZpbGUubWFlPic=

> <r_lp_tautomer_probability>
1

> <r_epik_Ionization_Penalty>
  0.0016

> <r_epik_Ionization_Penalty_Charging>
  0.0000

> <r_epik_Ionization_Penalty_Neutral>
  0.0016

> <r_epik_State_Penalty>
  0.0000

> <r_epik_Charging_Adjusted_Penalty>
0

> <i_epik_Tot_Q>
0

> <i_epik_Tot_abs_Q>
0

> <i_f3d_flags>
0

> <s_lp_Force_Field>
OPLS_2005

> <r_lp_Energy>
41.923836

> <b_lp_Chiralities_Consistent>
1

> <s_lp_Variant>
BindingDB_50248464_mol_1-1

> <s_i_glide_gridfile>
struct_1_site_1

> <i_i_glide_lignum>
59

> <i_i_glide_rotatable_bonds>
5

> <r_i_docking_score>
-6.297555830457

> <r_i_glide_ligand_efficiency>
-0.2099185276819

> <r_i_glide_ligand_efficiency_sa>
-0.65226567207568

> <r_i_glide_ligand_efficiency_ln>
-1.43087330204642

> <r_i_glide_gscore>
-6.297555830457

> <r_i_glide_lipo>
-3.38157556408911

> <r_i_glide_hbond>
0

> <r_i_glide_metal>
0

> <r_i_glide_rewards>
-1.05086573114653

> <r_i_glide_evdw>
-42.0348815917969

> <r_i_glide_ecoul>
-0.889569759368896

> <r_i_glide_erotb>
0.370065008273818

> <r_i_glide_esite>
0

> <r_i_glide_emodel>
-31.6322136106028

> <r_i_glide_energy>
-42.9244513511658

> <r_i_glide_einternal>
8.27569961547852

> <i_i_glide_confnum>
15

> <i_i_glide_posenum>
105

> <r_i_glide_eff_state_penalty>
0

> <PMID>
19211246

> <r_glide_shape_similarity>
0.759955167770386

> <s_m_subgroup_title>
505 training

> <s_m_subgroupid>
pocket_pv

> <b_m_subgroup_collapsed>
0

$$$$
BindingDB_50340944_mol_1
                    3D
 Schrodinger Suite 2021-2.
 52 55  0  0  1  0            999 V2000
   26.5173    1.7892   52.5724 C   0  0  0  0  0  0
   27.4992    1.2096   53.4059 C   0  0  0  0  0  0
   27.1038    0.2791   54.3888 C   0  0  0  0  0  0
   25.1616    1.3736   52.6789 C   0  0  0  0  0  0
   24.7759    0.4312   53.6648 C   0  0  0  0  0  0
   25.7543   -0.0732   54.5564 C   0  0  0  0  0  0
   25.4072   -0.8706   55.5830 N   0  0  0  0  0  0
   24.1368   -1.2728   55.6529 C   0  0  0  0  0  0
   23.1564   -0.9342   54.8251 N   0  0  0  0  0  0
   23.4508   -0.0559   53.8425 C   0  0  0  0  0  0
   22.4278    0.4101   53.0063 N   0  0  0  0  0  0
   21.0713    0.0744   52.9216 C   0  0  0  0  0  0
   20.4087   -0.8697   53.7489 C   0  0  0  0  0  0
   19.0492   -1.1454   53.5450 C   0  0  0  0  0  0
   18.3233   -0.4648   52.5468 C   0  0  0  0  0  0
   18.9752    0.4749   51.7195 C   0  0  0  0  0  0
   20.3413    0.7389   51.9112 C   0  0  0  0  0  0
   26.9594    2.7323   51.6645 O   0  0  0  0  0  0
   25.9966    3.6013   51.0700 C   0  0  0  0  0  0
   28.8095    1.6063   53.2445 O   0  0  0  0  0  0
   29.7285    1.2362   54.2615 C   0  0  0  0  0  0
   16.9609   -0.8089   52.3877 N   0  0  0  0  0  0
   15.9346    0.0452   52.2801 C   0  0  0  0  0  0
   14.8027   -0.5375   52.7034 N   0  0  0  0  0  0
   16.0208    1.1881   51.8361 O   0  0  0  0  0  0
   13.6437    0.0640   53.2564 C   0  0  0  0  0  0
   12.5641   -0.8075   53.5604 C   0  0  0  0  0  0
   11.3878   -0.3062   54.1657 C   0  0  0  0  0  0
   11.2801    1.0704   54.4802 C   0  0  0  0  0  0
   12.3523    1.9546   54.1704 C   0  0  0  0  0  0
   13.5279    1.4478   53.5554 C   0  0  0  0  0  0
   10.1612    1.5351   55.1027 F   0  0  0  0  0  0
   12.2435    3.6441   54.5679 Cl  0  0  0  0  0  0
   27.8204   -0.1601   55.0610 H   0  0  0  0  0  0
   24.4211    1.7820   52.0074 H   0  0  0  0  0  0
   23.8863   -1.9512   56.4553 H   0  0  0  0  0  0
   22.7245    1.1112   52.3447 H   0  0  0  0  0  0
   20.8913   -1.4200   54.5353 H   0  0  0  0  0  0
   18.5569   -1.8741   54.1740 H   0  0  0  0  0  0
   18.4341    0.9770   50.9324 H   0  0  0  0  0  0
   20.8311    1.4503   51.2609 H   0  0  0  0  0  0
   26.5184    4.4142   50.5645 H   0  0  0  0  0  0
   25.4037    3.0790   50.3207 H   0  0  0  0  0  0
   25.3355    4.0435   51.8177 H   0  0  0  0  0  0
   30.6715    1.7618   54.1746 H   0  0  0  0  0  0
   29.3528    1.5228   55.2431 H   0  0  0  0  0  0
   29.9395    0.1709   54.2351 H   0  0  0  0  0  0
   16.7253   -1.7210   52.7409 H   0  0  0  0  0  0
   14.8388   -1.5355   52.8337 H   0  0  0  0  0  0
   12.6368   -1.8640   53.3340 H   0  0  0  0  0  0
   10.5647   -0.9724   54.3904 H   0  0  0  0  0  0
   14.3416    2.1342   53.3571 H   0  0  0  0  0  0
  1  2  2  0  0  0
  1  4  1  0  0  0
  1 18  1  0  0  0
  2  3  1  0  0  0
  2 20  1  0  0  0
  3  6  2  0  0  0
  3 34  1  0  0  0
  4  5  2  0  0  0
  4 35  1  0  0  0
  5  6  1  0  0  0
  5 10  1  0  0  0
  6  7  1  0  0  0
  7  8  2  0  0  0
  8  9  1  0  0  0
  8 36  1  0  0  0
  9 10  2  0  0  0
 10 11  1  0  0  0
 11 12  1  0  0  0
 11 37  1  0  0  0
 12 13  1  0  0  0
 12 17  2  0  0  0
 13 14  2  0  0  0
 13 38  1  0  0  0
 14 15  1  0  0  0
 14 39  1  0  0  0
 15 16  2  0  0  0
 15 22  1  0  0  0
 16 17  1  0  0  0
 16 40  1  0  0  0
 17 41  1  0  0  0
 18 19  1  0  0  0
 19 42  1  0  0  0
 19 43  1  0  0  0
 19 44  1  0  0  0
 20 21  1  0  0  0
 21 45  1  0  0  0
 21 46  1  0  0  0
 21 47  1  0  0  0
 22 23  1  0  0  0
 22 48  1  0  0  0
 23 24  1  0  0  0
 23 25  2  0  0  0
 24 26  1  0  0  0
 24 49  1  0  0  0
 26 27  2  0  0  0
 26 31  1  0  0  0
 27 28  1  0  0  0
 27 50  1  0  0  0
 28 29  2  0  0  0
 28 51  1  0  0  0
 29 30  1  0  0  0
 29 32  1  0  0  0
 30 31  2  0  0  0
 30 33  1  0  0  0
 31 52  1  0  0  0
M  END
> <s_m_entry_id>
427

> <s_m_entry_name>
pocket_pv.238

> <s_m_Source_Path>
/home/bortolaa/Project/GT/mario-master/docking/set505protein_struct_1_site_1_set505ligs_train

> <s_m_Source_File>
pocket_pv.maegz

> <i_m_Source_File_Index>
238

> <From>
www.bindingDB.org

> <BindingDB Reactant_set_id>
406594

> <Ligand InChI>
InChI=1S/C23H19ClFN5O3/c1-32-20-10-16-19(11-21(20)33-2)26-12-27-22(16)28-13-3-5-14(6-4-13)29-23(31)30-15-7-8-18(25)17(24)9-15/h3-12H,1-2H3,(H,26,27,28)(H2,29,30,31)

> <Ligand InChI Key>
WZLMBXUNTQCPJE-UHFFFAOYSA-N

> <BindingDB MonomerID>
50340944

> <BindingDB Ligand Name>
1-(3-chloro-4-fluorophenyl)-3-(4-(6,7-dimethoxyquinazolin-4-ylamino)phenyl)urea::CHEMBL1761944::N-{4-[6,7-Dimethoxy-quinazolin-4-ylamino]phenyl}-N&#39;-(3-chloro-4-fluorophenyl)urea (11g)

> <Target Name Assigned by Curator or DataSource>
Epidermal growth factor receptor

> <Target Source Organism According to Curator or DataSource>
Homo sapiens

> <Ki (nM)>


> <IC50 (nM)>
15200

> <Kd (nM)>


> <EC50 (nM)>


> <kon (M-1-s-1)>


> <koff (s-1)>


> <Temp C>


> <Curation/DataSource>
Curated from the literature by BindingDB

> <Article DOI>
10.3109/14756360903169485

> <PubChem AID>


> <Patent Number>


> <Authors>
Garofalo, A; Goossens, L; Lemoine, A; Farce, A; Arlot, Y; Depreux, P

> <Institution>
Université Lille Nord de France

> <Link to Ligand in BindingDB>
http://www.bindingdb.org/bind/chemsearch/marvin/MolStructure.jsp?monomerid=50340944

> <Link to Ligand-Target Pair in BindingDB>
http://www.bindingdb.org/jsp/dbsearch/PrimarySearch_ki.jsp?energyterm=kJ/mole&tag=r21&monomerid=50340944&enzyme=Epidermal+growth+factor+receptor&column=ki&startPg=0&Increment=50&submit=Search

> <Ligand HET ID in PDB>


> <PDB ID(s) for Ligand-Target Complex>


> <PubChem CID>
54581370

> <PubChem SID>
131343880

> <ChEBI ID of Ligand>


> <ChEMBL ID of Ligand>
CHEMBL1761944

> <DrugBank ID of Ligand>


> <IUPHAR_GRAC ID of Ligand>


> <KEGG ID of Ligand>


> <ZINC ID of Ligand>
ZINC71329939

> <Number of Protein Chains in Target (>
1

> <BindingDB Target Chain Sequence>
MRPSGTAGAALLALLAALCPASRALEEKKVCQGTSNKLTQLGTFEDHFLSLQRMFNNCEVVLGNLEITYVQRNYDLSFLKTIQEVAGYVLIALNTVERIPLENLQIIRGNMYYENSYALAVLSNYDANKTGLKELPMRNLQEILHGAVRFSNNPALCNVESIQWRDIVSSDFLSNMSMDFQNHLGSCQKCDPSCPNGSCWGAGEENCQKLTKIICAQQCSGRCRGKSPSDCCHNQCAAGCTGPRESDCLVCRKFRDEATCKDTCPPLMLYNPTTYQMDVNPEGKYSFGATCVKKCPRNYVVTDHGSCVRACGADSYEMEEDGVRKCKKCEGPCRKVCNGIGIGEFKDSLSINATNIKHFKNCTSISGDLHILPVAFRGDSFTHTPPLDPQELDILKTVKEITGFLLIQAWPENRTDLHAFENLEIIRGRTKQHGQFSLAVVSLNITSLGLRSLKEISDGDVIISGNKNLCYANTINWKKLFGTSGQKTKIISNRGENSCKATGQVCHALCSPEGCWGPEPRDCVSCRNVSRGRECVDKCNLLEGEPREFVENSECIQCHPECLPQAMNITCTGRGPDNCIQCAHYIDGPHCVKTCPAGVMGENNTLVWKYADAGHVCHLCHPNCTYGCTGPGLEGCPTNGPKIPSIATGMVGALLLLLVVALGIGLFMRRRHIVRKRTLRRLLQERELVEPLTPSGEAPNQALLRILKETEFKKIKVLGSGAFGTVYKGLWIPEGEKVKIPVAIKELREATSPKANKEILDEAYVMASVDNPHVCRLLGICLTSTVQLITQLMPFGCLLDYVREHKDNIGSQYLLNWCVQIAKGMNYLEDRRLVHRDLAARNVLVKTPQHVKITDFGLAKLLGAEEKEYHAEGGKVPIKWMALESILHRIYTHQSDVWSYGVTVWELMTFGSKPYDGIPASEISSILEKGERLPQPPICTIDVYMIMVKCWMIDADSRPKFRELIIEFSKMARDPQRYLVIQGDERMHLPSPTDSNFYRALMDEEDMDDVVDADEYLIPQQGFFSSPSTSRTPLLSSLSATSNNSTVACIDRNGLQSCPIKEDSFLQRYSSDPTGALTEDSIDDTFLPVPEYINQSVPKRPAGSVQNPVYHNQPLNPAPSRDPHYQDPHSTAVGNPEYLNTVQPTCVNSTFDSPAHWAQKGSHQISLDNPDYQQDFFPKEAKPNGIFKGSTAENAEYLRVAPQSSEFIGA

> <PDB ID(s) of Target Chain>
1IVO,1M14,1M17,1MOX,1XKK,1Z9I,2GS2,2GS6,2ITW,2ITX,2ITY,2J5E,2J5F,2J6M,2RF9,2RGP,3B2V,3BEL,3GOP,3POZ,3QWQ,3VJO,3W2O,3W2P,3W2Q,3W2R,3W2S,3W32,3W33,4G5J,4I23,4JQ7,4JQ8,4JR3,4JRV,4KRO,4LI5,4RJ4,4RJ5,4RJ6,4RJ7,4RJ8,4TKS,4UIP,4UV7,4WKQ,4WRG,4ZAU,5C8K,5C8M,5C8N,5CAL,5CAN,5CAO,5CAP,5CAQ,5CAS,5CAU,5CAV,5EDP,5EDQ,5EDR,5EM5,5EM6,5EM7,5EM8,5FED,5GNK,5HCX,5HCY,5HCZ,5HIB,5HIC,5UGB,5WB7,5WB8,5Y25,6S89,6S8A

> <UniProt (SwissProt) Recommended Name of Target Chain>
Epidermal growth factor receptor

> <UniProt (SwissProt) Entry Name of Target Chain>
EGFR_HUMAN

> <UniProt (SwissProt) Primary ID of Target Chain>
P00533

> <UniProt (SwissProt) Secondary ID(s) of Target Chain>
O00688,O00732,P06268,Q14225,Q68GS5,Q92795,Q9BZS2,Q9GZX1,Q9H2C9,Q9H3C9,Q9UMD7,Q9UMD8,Q9UMG5

> <UniProt (SwissProt) Alternative ID(s) of Target Chain>


> <UniProt (TrEMBL) Submitted Name of Target Chain>


> <UniProt (TrEMBL) Entry Name of Target Chain>


> <UniProt (TrEMBL) Primary ID of Target Chain>


> <UniProt (TrEMBL) Secondary ID(s) of Target Chain>


> <UniProt (TrEMBL) Alternative ID(s) of Target Chain>


> <training label>
4.81816

> <i_lp_mmshare_version>
54117

> <s_epik_input>
W0NIM11PYyhbY0hdMSljKE9bQ0gzXSlbY0hdYyhjMTIpbltjSF1uYzJbTkhdYzNbY0hdW2NIXWMoW2NIXVtjSF0zKVtOSF1DKD1PKVtOSF1jNFtjSF1bY0hdYyhGKWMoQ2wpW2NIXTQ=

> <s_epik_cmdline>
J2VwaWtfcHl0aG9uJywgJy1waHQnLCAnMC4xJywgJy1waCcsICc3LjQnLCAnLXRuJywgJzgnLCAnLW1hJywgJzIwMCcsICctaW1hZScsICc8aW5maWxlLm1hZT4nLCAnLW9tYWUnLCAnPG91dGZpbGUubWFlPic=

> <r_lp_tautomer_probability>
1

> <r_epik_Ionization_Penalty>
  0.0007

> <r_epik_Ionization_Penalty_Charging>
  0.0000

> <r_epik_Ionization_Penalty_Neutral>
  0.0007

> <r_epik_State_Penalty>
  0.0000

> <r_epik_Charging_Adjusted_Penalty>
0

> <i_epik_Tot_Q>
0

> <i_epik_Tot_abs_Q>
0

> <i_f3d_flags>
0

> <s_lp_Force_Field>
OPLS_2005

> <r_lp_Energy>
36.703981

> <b_lp_Chiralities_Consistent>
1

> <s_lp_Variant>
BindingDB_50340944_mol_1-1

> <s_i_glide_gridfile>
struct_1_site_1

> <i_i_glide_lignum>
18

> <i_i_glide_rotatable_bonds>
8

> <r_i_docking_score>
-6.28057724143092

> <r_i_glide_ligand_efficiency>
-0.190320522467604

> <r_i_glide_ligand_efficiency_sa>
-0.610459608806088

> <r_i_glide_ligand_efficiency_ln>
-1.39676785940566

> <r_i_glide_gscore>
-6.28057724143092

> <r_i_glide_lipo>
-2.61870977730455

> <r_i_glide_hbond>
-0.183704749369534

> <r_i_glide_metal>
0

> <r_i_glide_rewards>
-0.755009466683476

> <r_i_glide_evdw>
-49.1794586181641

> <r_i_glide_ecoul>
-4.36669111251831

> <r_i_glide_erotb>
0.461047249046452

> <r_i_glide_esite>
-0.0702238993338551

> <r_i_glide_emodel>
-31.2789575544027

> <r_i_glide_energy>
-53.5461497306824

> <r_i_glide_einternal>
5.89024496078491

> <i_i_glide_confnum>
7

> <i_i_glide_posenum>
58

> <r_i_glide_eff_state_penalty>
0

> <PMID>
20222760

> <r_glide_shape_similarity>
0.605017781257629

> <pH>
7.5

> <s_m_subgroup_title>
505 training

> <s_m_subgroupid>
pocket_pv

> <b_m_subgroup_collapsed>
0

$$$$
/home/bortolaa/Project/GT/mario-master/ligands/set505ligs_train.sdf:78
                    3D
 Schrodinger Suite 2021-2.
 68 71  0  0  1  0            999 V2000
   17.4588   -1.8689   53.3081 C   0  0  0  0  0  0
   16.4692   -1.1936   52.5413 C   0  0  0  0  0  0
   16.8462   -0.0658   51.7603 C   0  0  0  0  0  0
   18.7591   -1.3478   53.3824 C   0  0  0  0  0  0
   19.1304   -0.2512   52.5748 C   0  0  0  0  0  0
   18.1853    0.3745   51.7193 C   0  0  0  0  0  0
   18.5697    1.3588   50.8734 N   0  0  0  0  0  0
   19.8598    1.6965   50.8651 C   0  0  0  0  0  0
   20.8059    1.2037   51.6638 N   0  0  0  0  0  0
   20.4479    0.2438   52.5421 C   0  0  0  0  0  0
   21.3716   -0.3046   53.4415 N   0  0  0  0  0  0
   22.7349   -0.0814   53.6324 C   0  0  0  0  0  0
   23.3783   -0.9798   54.5019 C   0  0  0  0  0  0
   24.7529   -0.8423   54.7534 C   0  0  0  0  0  0
   25.4890    0.2133   54.1560 C   0  0  0  0  0  0
   24.8443    1.1229   53.2937 C   0  0  0  0  0  0
   23.4722    0.9712   53.0335 C   0  0  0  0  0  0
   17.2183   -3.0400   53.9992 O   0  0  0  0  0  0
   16.6903   -4.1411   53.2511 C   0  0  0  0  0  0
   15.1897   -1.7167   52.5744 O   0  0  0  0  0  0
   14.1202   -0.9690   52.0242 C   0  0  0  0  0  0
   13.8152    0.2262   52.9311 C   0  0  0  0  0  0
   12.8697    1.2220   52.2313 C   0  0  0  0  0  0
   12.6848    2.4997   52.9176 N   0  0  0  0  0  0
   12.0513    2.3544   54.2342 C   0  0  0  0  0  0
   11.8437    3.7151   54.9203 C   0  0  0  0  0  0
   13.0897    4.4107   54.9746 O   0  0  0  0  0  0
   13.6497    4.6660   53.6856 C   0  0  0  0  0  0
   13.9052    3.3180   52.9868 C   0  0  0  0  0  0
   26.9367    0.3738   54.4869 C   0  0  0  0  0  0
   27.7027    0.8473   53.4927 N   0  0  0  0  0  0
   27.3879   -0.0547   55.5531 O   0  0  0  0  0  0
   29.1461    0.6373   53.4453 C   0  0  0  0  0  0
   29.5095   -0.8644   53.4072 C   0  0  0  0  0  0
   28.5130   -1.6626   52.9754 O   0  0  0  0  0  0
   30.6133   -1.2586   53.7799 O   0  0  0  0  0  0
   28.7127   -3.0623   52.9254 C   0  0  0  0  0  0
   16.1359    0.4531   51.1358 H   0  0  0  0  0  0
   19.4635   -1.8665   54.0113 H   0  0  0  0  0  0
   20.1582    2.4649   50.1673 H   0  0  0  0  0  0
   20.9846   -1.0219   54.0354 H   0  0  0  0  0  0
   22.8323   -1.7793   54.9787 H   0  0  0  0  0  0
   25.2306   -1.5423   55.4243 H   0  0  0  0  0  0
   25.3759    1.9528   52.8484 H   0  0  0  0  0  0
   23.0245    1.7012   52.3833 H   0  0  0  0  0  0
   15.9416   -4.6607   53.8513 H   0  0  0  0  0  0
   16.2268   -3.8661   52.3046 H   0  0  0  0  0  0
   17.4816   -4.8506   53.0113 H   0  0  0  0  0  0
   14.3274   -0.6775   50.9941 H   0  0  0  0  0  0
   13.2423   -1.6150   51.9785 H   0  0  0  0  0  0
   13.3885   -0.1344   53.8683 H   0  0  0  0  0  0
   14.7467    0.7216   53.1949 H   0  0  0  0  0  0
   13.2414    1.4244   51.2271 H   0  0  0  0  0  0
   11.8963    0.7505   52.0917 H   0  0  0  0  0  0
   11.0896    1.8463   54.1344 H   0  0  0  0  0  0
   12.6723    1.7388   54.8829 H   0  0  0  0  0  0
   11.4893    3.5584   55.9344 H   0  0  0  0  0  0
   11.0919    4.3061   54.3971 H   0  0  0  0  0  0
   14.5814    5.2143   53.8048 H   0  0  0  0  0  0
   12.9763    5.2915   53.0981 H   0  0  0  0  0  0
   14.6885    2.8000   53.5375 H   0  0  0  0  0  0
   14.2953    3.4845   51.9846 H   0  0  0  0  0  0
   27.2471    1.1964   52.6637 H   0  0  0  0  0  0
   29.6067    1.0836   54.3291 H   0  0  0  0  0  0
   29.5678    1.1396   52.5779 H   0  0  0  0  0  0
   27.7960   -3.5623   52.6103 H   0  0  0  0  0  0
   29.0157   -3.4693   53.8891 H   0  0  0  0  0  0
   29.4874   -3.2695   52.1921 H   0  0  0  0  0  0
  1  2  2  0  0  0
  1  4  1  0  0  0
  1 18  1  0  0  0
  2  3  1  0  0  0
  2 20  1  0  0  0
  3  6  2  0  0  0
  3 38  1  0  0  0
  4  5  2  0  0  0
  4 39  1  0  0  0
  5  6  1  0  0  0
  5 10  1  0  0  0
  6  7  1  0  0  0
  7  8  2  0  0  0
  8  9  1  0  0  0
  8 40  1  0  0  0
  9 10  2  0  0  0
 10 11  1  0  0  0
 11 12  1  0  0  0
 11 41  1  0  0  0
 12 13  2  0  0  0
 12 17  1  0  0  0
 13 14  1  0  0  0
 13 42  1  0  0  0
 14 15  2  0  0  0
 14 43  1  0  0  0
 15 16  1  0  0  0
 15 30  1  0  0  0
 16 17  2  0  0  0
 16 44  1  0  0  0
 17 45  1  0  0  0
 18 19  1  0  0  0
 19 46  1  0  0  0
 19 47  1  0  0  0
 19 48  1  0  0  0
 20 21  1  0  0  0
 21 22  1  0  0  0
 21 49  1  0  0  0
 21 50  1  0  0  0
 22 23  1  0  0  0
 22 51  1  0  0  0
 22 52  1  0  0  0
 23 24  1  0  0  0
 23 53  1  0  0  0
 23 54  1  0  0  0
 24 25  1  0  0  0
 24 29  1  0  0  0
 25 26  1  0  0  0
 25 55  1  0  0  0
 25 56  1  0  0  0
 26 27  1  0  0  0
 26 57  1  0  0  0
 26 58  1  0  0  0
 27 28  1  0  0  0
 28 29  1  0  0  0
 28 59  1  0  0  0
 28 60  1  0  0  0
 29 61  1  0  0  0
 29 62  1  0  0  0
 30 31  1  0  0  0
 30 32  2  0  0  0
 31 33  1  0  0  0
 31 63  1  0  0  0
 33 34  1  0  0  0
 33 64  1  0  0  0
 33 65  1  0  0  0
 34 35  1  0  0  0
 34 36  2  0  0  0
 35 37  1  0  0  0
 37 66  1  0  0  0
 37 67  1  0  0  0
 37 68  1  0  0  0
M  END
> <s_m_entry_id>
428

> <s_m_entry_name>
pocket_pv.239

> <s_m_Source_Path>
/home/bortolaa/Project/GT/mario-master/docking/set505protein_struct_1_site_1_set505ligs_train

> <s_m_Source_File>
pocket_pv.maegz

> <i_m_Source_File_Index>
239

> <From>
www.bindingDB.org

> <BindingDB Reactant_set_id>
50553196

> <Ligand InChI>
InChI=1S/C26H31N5O6/c1-34-22-14-20-21(15-23(22)37-11-3-8-31-9-12-36-13-10-31)28-17-29-25(20)30-19-6-4-18(5-7-19)26(33)27-16-24(32)35-2/h4-7,14-15,17H,3,8-13,16H2,1-2H3,(H,27,33)(H,28,29,30)

> <Ligand InChI Key>
JBZOSUQWTMOZNC-UHFFFAOYSA-N

> <BindingDB MonomerID>
50210749

> <BindingDB Ligand Name>
CHEMBL3904787

> <Target Name Assigned by Curator or DataSource>
Epidermal growth factor receptor

> <Target Source Organism According to Curator or DataSource>
Homo sapiens

> <Ki (nM)>


> <IC50 (nM)>
763

> <Kd (nM)>


> <EC50 (nM)>


> <kon (M-1-s-1)>


> <koff (s-1)>


> <pH>


> <Temp C>


> <Curation/DataSource>
ChEMBL

> <Article DOI>
10.1016/j.ejmech.2016.09.039

> <PubChem AID>


> <Patent Number>


> <Authors>
Zhang, HQ; Gong, FH; Ye, JQ; Zhang, C; Yue, XH; Li, CG; Xu, YG; Sun, LP

> <Institution>
China Pharmaceutical University

> <Link to Ligand in BindingDB>
http://www.bindingdb.org/bind/chemsearch/marvin/MolStructure.jsp?monomerid=50210749

> <Link to Ligand-Target Pair in BindingDB>
http://www.bindingdb.org/jsp/dbsearch/PrimarySearch_ki.jsp?energyterm=kJ/mole&tag=r21&monomerid=50210749&enzyme=Epidermal+growth+factor+receptor&column=ki&startPg=0&Increment=50&submit=Search

> <Ligand HET ID in PDB>


> <PDB ID(s) for Ligand-Target Complex>


> <PubChem CID>
134135529

> <PubChem SID>
375982716

> <ChEBI ID of Ligand>


> <ChEMBL ID of Ligand>
CHEMBL3904787

> <DrugBank ID of Ligand>


> <IUPHAR_GRAC ID of Ligand>


> <KEGG ID of Ligand>


> <ZINC ID of Ligand>


> <Number of Protein Chains in Target (>
1

> <BindingDB Target Chain Sequence>
MRPSGTAGAALLALLAALCPASRALEEKKVCQGTSNKLTQLGTFEDHFLSLQRMFNNCEVVLGNLEITYVQRNYDLSFLKTIQEVAGYVLIALNTVERIPLENLQIIRGNMYYENSYALAVLSNYDANKTGLKELPMRNLQEILHGAVRFSNNPALCNVESIQWRDIVSSDFLSNMSMDFQNHLGSCQKCDPSCPNGSCWGAGEENCQKLTKIICAQQCSGRCRGKSPSDCCHNQCAAGCTGPRESDCLVCRKFRDEATCKDTCPPLMLYNPTTYQMDVNPEGKYSFGATCVKKCPRNYVVTDHGSCVRACGADSYEMEEDGVRKCKKCEGPCRKVCNGIGIGEFKDSLSINATNIKHFKNCTSISGDLHILPVAFRGDSFTHTPPLDPQELDILKTVKEITGFLLIQAWPENRTDLHAFENLEIIRGRTKQHGQFSLAVVSLNITSLGLRSLKEISDGDVIISGNKNLCYANTINWKKLFGTSGQKTKIISNRGENSCKATGQVCHALCSPEGCWGPEPRDCVSCRNVSRGRECVDKCNLLEGEPREFVENSECIQCHPECLPQAMNITCTGRGPDNCIQCAHYIDGPHCVKTCPAGVMGENNTLVWKYADAGHVCHLCHPNCTYGCTGPGLEGCPTNGPKIPSIATGMVGALLLLLVVALGIGLFMRRRHIVRKRTLRRLLQERELVEPLTPSGEAPNQALLRILKETEFKKIKVLGSGAFGTVYKGLWIPEGEKVKIPVAIKELREATSPKANKEILDEAYVMASVDNPHVCRLLGICLTSTVQLITQLMPFGCLLDYVREHKDNIGSQYLLNWCVQIAKGMNYLEDRRLVHRDLAARNVLVKTPQHVKITDFGLAKLLGAEEKEYHAEGGKVPIKWMALESILHRIYTHQSDVWSYGVTVWELMTFGSKPYDGIPASEISSILEKGERLPQPPICTIDVYMIMVKCWMIDADSRPKFRELIIEFSKMARDPQRYLVIQGDERMHLPSPTDSNFYRALMDEEDMDDVVDADEYLIPQQGFFSSPSTSRTPLLSSLSATSNNSTVACIDRNGLQSCPIKEDSFLQRYSSDPTGALTEDSIDDTFLPVPEYINQSVPKRPAGSVQNPVYHNQPLNPAPSRDPHYQDPHSTAVGNPEYLNTVQPTCVNSTFDSPAHWAQKGSHQISLDNPDYQQDFFPKEAKPNGIFKGSTAENAEYLRVAPQSSEFIGA

> <PDB ID(s) of Target Chain>
1IVO,1M14,1M17,1MOX,1XKK,1Z9I,2GS2,2GS6,2ITW,2ITX,2ITY,2J5E,2J5F,2J6M,2RF9,2RGP,3B2V,3BEL,3GOP,3POZ,3QWQ,3VJO,3W2O,3W2P,3W2Q,3W2R,3W2S,3W32,3W33,4G5J,4I23,4JQ7,4JQ8,4JR3,4JRV,4KRO,4LI5,4RJ4,4RJ5,4RJ6,4RJ7,4RJ8,4TKS,4UIP,4UV7,4WKQ,4WRG,4ZAU,5C8K,5C8M,5C8N,5CAL,5CAN,5CAO,5CAP,5CAQ,5CAS,5CAU,5CAV,5EDP,5EDQ,5EDR,5EM5,5EM6,5EM7,5EM8,5FED,5GNK,5HCX,5HCY,5HCZ,5HIB,5HIC,5UGB,5WB7,5WB8,5Y25,6S89,6S8A

> <UniProt (SwissProt) Recommended Name of Target Chain>
Epidermal growth factor receptor

> <UniProt (SwissProt) Entry Name of Target Chain>
EGFR_HUMAN

> <UniProt (SwissProt) Primary ID of Target Chain>
P00533

> <UniProt (SwissProt) Secondary ID(s) of Target Chain>
O00688,O00732,P06268,Q14225,Q68GS5,Q92795,Q9BZS2,Q9GZX1,Q9H2C9,Q9H3C9,Q9UMD7,Q9UMD8,Q9UMG5

> <UniProt (SwissProt) Alternative ID(s) of Target Chain>


> <UniProt (TrEMBL) Submitted Name of Target Chain>


> <UniProt (TrEMBL) Entry Name of Target Chain>


> <UniProt (TrEMBL) Primary ID of Target Chain>


> <UniProt (TrEMBL) Secondary ID(s) of Target Chain>


> <UniProt (TrEMBL) Alternative ID(s) of Target Chain>


> <training label>
6.11748

> <i_lp_mmshare_version>
54117

> <s_epik_input>
W0NIMl0xW0NIMl1PW0NIMl1bQ0gyXU4xW0NIMl1bQ0gyXVtDSDJdT2MoYyhbY0hdMilPW0NIM10pW2NIXWMoYzIzKW5bY0hdbmMzW05IXWM0W2NIXVtjSF1jKFtjSF1bY0hdNClDKD1PKVtOSF1bQ0gyXUMoPU8pT1tDSDNd

> <s_epik_cmdline>
J2VwaWtfcHl0aG9uJywgJy1waHQnLCAnMC4xJywgJy1waCcsICc3LjQnLCAnLXRuJywgJzgnLCAnLW1hJywgJzIwMCcsICctaW1hZScsICc8aW5maWxlLm1hZT4nLCAnLW9tYWUnLCAnPG91dGZpbGUubWFlPic=

> <r_lp_tautomer_probability>
0.999978000241998

> <r_epik_Ionization_Penalty>
  0.1970

> <r_epik_Ionization_Penalty_Charging>
  0.0000

> <r_epik_Ionization_Penalty_Neutral>
  0.1970

> <r_epik_State_Penalty>
  0.1860

> <r_epik_Charging_Adjusted_Penalty>
0.186024314191534

> <i_epik_Tot_Q>
0

> <i_epik_Tot_abs_Q>
0

> <i_f3d_flags>
0

> <s_lp_Force_Field>
OPLS_2005

> <r_lp_Energy>
44.008084

> <b_lp_Chiralities_Consistent>
1

> <s_lp_Variant>
/home/bortolaa/Project/GT/mario-master/ligands/set505ligs_train.sdf:78-1

> <s_i_glide_gridfile>
struct_1_site_1

> <i_i_glide_lignum>
78

> <i_i_glide_rotatable_bonds>
13

> <r_i_docking_score>
-6.26284113398377

> <r_i_glide_ligand_efficiency>
-0.169265976594156

> <r_i_glide_ligand_efficiency_sa>
-0.564031785268348

> <r_i_glide_ligand_efficiency_ln>
-1.35826342013368

> <r_i_glide_gscore>
-6.44884113398377

> <r_i_glide_lipo>
-3.33262138483378

> <r_i_glide_hbond>
-0.248029837999004

> <r_i_glide_metal>
0

> <r_i_glide_rewards>
-0.732837458793115

> <r_i_glide_evdw>
-57.634635925293

> <r_i_glide_ecoul>
-0.282760858535767

> <r_i_glide_erotb>
0.788793472687137

> <r_i_glide_esite>
0

> <r_i_glide_emodel>
-30.6843398539875

> <r_i_glide_energy>
-57.9173967838287

> <r_i_glide_einternal>
14.7043218612671

> <i_i_glide_confnum>
52

> <i_i_glide_posenum>
247

> <r_i_glide_eff_state_penalty>
0.186

> <PMID>
27688180

> <s_epik_Chemistry_Notes>
This compound has an ester and may undergo hydrolysis at high or low pH.

> <r_glide_shape_similarity>
0.584423542022705

> <s_m_subgroup_title>
505 training

> <s_m_subgroupid>
pocket_pv

> <b_m_subgroup_collapsed>
0

$$$$
/home/bortolaa/Project/GT/mario-master/ligands/set505ligs_train.sdf:170
                    3D
 Schrodinger Suite 2021-2.
 86 92  0  0  1  0            999 V2000
   11.2820    1.3368   52.1900 C   0  0  0  0  0  0
   11.8248   -0.0583   51.7832 C   0  0  1  0  0  0
   12.1543    1.9091   53.3367 C   0  0  2  0  0  0
   11.7700   -1.0110   53.0085 C   0  0  0  0  0  0
   12.1065    0.9650   54.5619 C   0  0  0  0  0  0
   12.6485   -0.4315   54.1495 C   0  0  1  0  0  0
   13.6214    2.0378   52.8538 C   0  0  0  0  0  0
   14.1826    0.6503   52.4280 C   0  0  0  0  0  0
   13.2937    0.0653   51.2922 C   0  0  0  0  0  0
   14.1078   -0.3095   53.6480 C   0  0  0  0  0  0
   15.5399    0.8844   51.9283 N   0  0  0  0  0  0
   19.0692    1.9110   49.6085 C   0  0  0  0  0  0
   20.2762    1.6367   50.2967 C   0  0  0  0  0  0
   20.2676    0.8711   51.4968 C   0  0  0  0  0  0
   19.0194    0.3903   51.9666 C   0  0  0  0  0  0
   17.8237    0.6374   51.2798 C   0  0  0  0  0  0
   17.8425    1.4122   50.0970 C   0  0  0  0  0  0
   21.4924    0.6406   52.1671 N   0  0  0  0  0  0
   22.2887   -1.8770   55.3751 N   0  0  0  0  0  0
   21.1002   -1.6996   54.8218 C   0  0  0  0  0  0
   20.8220   -0.9233   53.7985 N   0  0  0  0  0  0
   21.8118   -0.2094   53.2411 C   0  0  0  0  0  0
   23.1352   -0.3169   53.7404 C   0  0  0  0  0  0
   24.2442    0.3688   53.1900 C   0  0  0  0  0  0
   25.5197    0.2859   53.8113 C   0  0  0  0  0  0
   25.6603   -0.4900   54.9751 C   0  0  0  0  0  0
   24.5777   -1.2608   55.4565 C   0  0  0  0  0  0
   23.3147   -1.1773   54.8568 C   0  0  0  0  0  0
   26.6651    0.9374   53.4007 O   0  0  0  0  0  0
   26.6370    1.6467   52.1838 C   0  0  0  0  0  0
   25.8968    2.9760   52.3330 C   0  0  0  0  0  0
   25.7505    3.7033   50.9739 C   0  0  0  0  0  0
   24.6947    6.9827   49.5372 O   0  0  0  0  0  0
   25.0553    6.8165   50.9102 C   0  0  0  0  0  0
   24.3058    5.6070   51.5328 C   0  0  0  0  0  0
   24.4540    4.3635   50.7616 N   0  0  0  0  0  0
   24.1622    4.6289   49.3474 C   0  0  0  0  0  0
   24.9656    5.8122   48.7653 C   0  0  0  0  0  0
   26.8864   -0.4660   55.6008 O   0  0  0  0  0  0
   26.8653   -0.4637   57.0224 C   0  0  0  0  0  0
   16.5657    0.0305   51.8189 C   0  0  0  0  0  0
   16.5461   -1.1453   52.1804 O   0  0  0  0  0  0
   21.5709    2.1773   49.7171 C   0  0  0  0  0  0
   10.2401    1.2698   52.5090 H   0  0  0  0  0  0
   11.2937    2.0186   51.3373 H   0  0  0  0  0  0
   11.2083   -0.4624   50.9781 H   0  0  0  0  0  0
   11.7759    2.8918   53.6228 H   0  0  0  0  0  0
   10.7392   -1.1284   53.3467 H   0  0  0  0  0  0
   12.1165   -2.0059   52.7298 H   0  0  0  0  0  0
   12.6890    1.3949   55.3758 H   0  0  0  0  0  0
   11.0835    0.8768   54.9313 H   0  0  0  0  0  0
   12.6159   -1.1050   55.0067 H   0  0  0  0  0  0
   14.2322    2.4649   53.6487 H   0  0  0  0  0  0
   13.6656    2.7396   52.0205 H   0  0  0  0  0  0
   13.3338    0.7004   50.4055 H   0  0  0  0  0  0
   13.6688   -0.9114   50.9820 H   0  0  0  0  0  0
   14.4418   -1.3100   53.3764 H   0  0  0  0  0  0
   14.7528    0.0342   54.4519 H   0  0  0  0  0  0
   15.7288    1.8287   51.6246 H   0  0  0  0  0  0
   19.0798    2.4891   48.6951 H   0  0  0  0  0  0
   18.8946   -0.1659   52.8739 H   0  0  0  0  0  0
   16.9287    1.6062   49.5495 H   0  0  0  0  0  0
   22.2807    1.1428   51.7889 H   0  0  0  0  0  0
   20.2789   -2.2592   55.2434 H   0  0  0  0  0  0
   24.1047    0.9517   52.2961 H   0  0  0  0  0  0
   24.6882   -1.9057   56.3155 H   0  0  0  0  0  0
   26.2310    1.0269   51.3828 H   0  0  0  0  0  0
   27.6649    1.8866   51.9215 H   0  0  0  0  0  0
   26.4768    3.5344   53.0564 H   0  0  0  0  0  0
   24.9146    2.8660   52.7872 H   0  0  0  0  0  0
   25.8788    2.9605   50.1888 H   0  0  0  0  0  0
   26.5753    4.4020   50.8365 H   0  0  0  0  0  0
   24.8031    7.7295   51.4469 H   0  0  0  0  0  0
   26.1361    6.6956   50.9773 H   0  0  0  0  0  0
   24.6564    5.4566   52.5551 H   0  0  0  0  0  0
   23.2454    5.8526   51.6066 H   0  0  0  0  0  0
   23.1010    4.8587   49.2444 H   0  0  0  0  0  0
   24.3308    3.7284   48.7566 H   0  0  0  0  0  0
   24.6728    5.9971   47.7316 H   0  0  0  0  0  0
   26.0357    5.6005   48.7639 H   0  0  0  0  0  0
   27.8880   -0.3795   57.3753 H   0  0  0  0  0  0
   26.3018    0.3955   57.3863 H   0  0  0  0  0  0
   26.4383   -1.3611   57.4627 H   0  0  0  0  0  0
   21.3955    2.7744   48.8189 H   0  0  0  0  0  0
   22.0747    2.8122   50.4493 H   0  0  0  0  0  0
   22.2375    1.3554   49.4484 H   0  0  0  0  0  0
  1  2  1  0  0  0
  1  3  1  0  0  0
  1 44  1  0  0  0
  1 45  1  0  0  0
  2  4  1  0  0  0
  2  9  1  0  0  0
  2 46  1  0  0  0
  3  5  1  0  0  0
  3  7  1  0  0  0
  3 47  1  0  0  0
  4  6  1  0  0  0
  4 48  1  0  0  0
  4 49  1  0  0  0
  5  6  1  0  0  0
  5 50  1  0  0  0
  5 51  1  0  0  0
  6 10  1  0  0  0
  6 52  1  0  0  0
  7  8  1  0  0  0
  7 53  1  0  0  0
  7 54  1  0  0  0
  8 10  1  0  0  0
  8  9  1  0  0  0
  8 11  1  0  0  0
  9 55  1  0  0  0
  9 56  1  0  0  0
 10 57  1  0  0  0
 10 58  1  0  0  0
 11 41  1  0  0  0
 11 59  1  0  0  0
 12 13  1  0  0  0
 12 17  2  0  0  0
 12 60  1  0  0  0
 13 14  2  0  0  0
 13 43  1  0  0  0
 14 15  1  0  0  0
 14 18  1  0  0  0
 15 16  2  0  0  0
 15 61  1  0  0  0
 16 17  1  0  0  0
 16 41  1  0  0  0
 17 62  1  0  0  0
 18 22  1  0  0  0
 18 63  1  0  0  0
 19 20  1  0  0  0
 19 28  2  0  0  0
 20 21  2  0  0  0
 20 64  1  0  0  0
 21 22  1  0  0  0
 22 23  2  0  0  0
 23 24  1  0  0  0
 23 28  1  0  0  0
 24 25  2  0  0  0
 24 65  1  0  0  0
 25 26  1  0  0  0
 25 29  1  0  0  0
 26 27  2  0  0  0
 26 39  1  0  0  0
 27 28  1  0  0  0
 27 66  1  0  0  0
 29 30  1  0  0  0
 30 31  1  0  0  0
 30 67  1  0  0  0
 30 68  1  0  0  0
 31 32  1  0  0  0
 31 69  1  0  0  0
 31 70  1  0  0  0
 32 36  1  0  0  0
 32 71  1  0  0  0
 32 72  1  0  0  0
 33 34  1  0  0  0
 33 38  1  0  0  0
 34 35  1  0  0  0
 34 73  1  0  0  0
 34 74  1  0  0  0
 35 36  1  0  0  0
 35 75  1  0  0  0
 35 76  1  0  0  0
 36 37  1  0  0  0
 37 38  1  0  0  0
 37 77  1  0  0  0
 37 78  1  0  0  0
 38 79  1  0  0  0
 38 80  1  0  0  0
 39 40  1  0  0  0
 40 81  1  0  0  0
 40 82  1  0  0  0
 40 83  1  0  0  0
 41 42  2  0  0  0
 43 84  1  0  0  0
 43 85  1  0  0  0
 43 86  1  0  0  0
M  END
> <s_m_entry_id>
429

> <s_m_entry_name>
pocket_pv.240

> <s_m_Source_Path>
/home/bortolaa/Project/GT/mario-master/docking/set505protein_struct_1_site_1_set505ligs_train

> <s_m_Source_File>
pocket_pv.maegz

> <i_m_Source_File_Index>
240

> <From>
www.bindingDB.org

> <BindingDB Reactant_set_id>
50467790

> <Ligand InChI>
InChI=1S/C34H43N5O4/c1-22-4-5-26(33(40)38-34-18-23-12-24(19-34)14-25(13-23)20-34)15-28(22)37-32-27-16-31(30(41-2)17-29(27)35-21-36-32)43-9-3-6-39-7-10-42-11-8-39/h4-5,15-17,21,23-25H,3,6-14,18-20H2,1-2H3,(H,38,40)(H,35,36,37)

> <Ligand InChI Key>
ZCCCRESXCWSEMU-UHFFFAOYSA-N

> <BindingDB MonomerID>
50147003

> <BindingDB Ligand Name>
CHEMBL3763701

> <Target Name Assigned by Curator or DataSource>
Epidermal growth factor receptor

> <Target Source Organism According to Curator or DataSource>


> <Ki (nM)>


> <Kd (nM)>


> <EC50 (nM)>


> <kon (M-1-s-1)>


> <koff (s-1)>


> <pH>


> <Temp C>


> <Curation/DataSource>
ChEMBL

> <Article DOI>
10.1016/j.ejmech.2016.01.045

> <PubChem AID>


> <Patent Number>


> <Authors>
Yu, H; Li, Y; Ge, Y; Song, Z; Wang, C; Huang, S; Jin, Y; Han, X; Zhen, Y; Liu, K; Zhou, Y; Ma, X

> <Institution>
Dalian Medical University

> <Link to Ligand in BindingDB>
http://www.bindingdb.org/bind/chemsearch/marvin/MolStructure.jsp?monomerid=50147003

> <Link to Ligand-Target Pair in BindingDB>
http://www.bindingdb.org/jsp/dbsearch/PrimarySearch_ki.jsp?energyterm=kJ/mole&tag=r21&monomerid=50147003&enzyme=Epidermal+growth+factor+receptor&column=ki&startPg=0&Increment=50&submit=Search

> <Ligand HET ID in PDB>


> <PDB ID(s) for Ligand-Target Complex>


> <PubChem CID>
3068143

> <PubChem SID>
87264492

> <ChEBI ID of Ligand>


> <ChEMBL ID of Ligand>
CHEMBL3763701

> <DrugBank ID of Ligand>


> <IUPHAR_GRAC ID of Ligand>


> <KEGG ID of Ligand>


> <ZINC ID of Ligand>


> <Number of Protein Chains in Target (>
4

> <BindingDB Target Chain Sequence>
MRANDALQVLGLLFSLARGSEVGNSQAVCPGTLNGLSVTGDAENQYQTLYKLYERCEVVMGNLEIVLTGHNADLSFLQWIREVTGYVLVAMNEFSTLPLPNLRVVRGTQVYDGKFAIFVMLNYNTNSSHALRQLRLTQLTEILSGGVYIEKNDKLCHMDTIDWRDIVRDRDAEIVVKDNGRSCPPCHEVCKGRCWGPGSEDCQTLTKTICAPQCNGHCFGPNPNQCCHDECAGGCSGPQDTDCFACRHFNDSGACVPRCPQPLVYNKLTFQLEPNPHTKYQYGGVCVASCPHNFVVDQTSCVRACPPDKMEVDKNGLKMCEPCGGLCPKACEGTGSGSRFQTVDSSNIDGFVNCTKILGNLDFLITGLNGDPWHKIPALDPEKLNVFRTVREITGYLNIQSWPPHMHNFSVFSNLTTIGGRSLYNRGFSLLIMKNLNVTSLGFRSLKEISAGRIYISANRQLCYHHSLNWTKVLRGPTEERLDIKHNRPRRDCVAEGKVCDPLCSSGGCWGPGPGQCLSCRNYSRGGVCVTHCNFLNGEPREFAHEAECFSCHPECQPMEGTATCNGSGSDTCAQCAHFRDGPHCVSSCPHGVLGAKGPIYKYPDVQNECRPCHENCTQGCKGPELQDCLGQTLVLIGKTHLTMALTVIAGLVVIFMMLGGTFLYWRGRRIQNKRAMRRYLERGESIEPLDPSEKANKVLARIFKETELRKLKVLGSGVFGTVHKGVWIPEGESIKIPVCIKVIEDKSGRQSFQAVTDHMLAIGSLDHAHIVRLLGLCPGSSLQLVTQYLPLGSLLDHVRQHRGALGPQLLLNWGVQIAKGMYYLEEHGMVHRNLAARNVLLKSPSQVQVADFGVADLLPPDDKQLLYSEAKTPIKWMALESIHFGKYTHQSDVWSYGVTVWELMTFGAEPYAGLRLAEVPDLLEKGERLAQPQICTIDVYMVMVKCWMIDENIRPTFKELANEFTRMARDPPRYLVIKRESGPGIAPGPEPHGLTNKKLEEVELEPELDLDLDLEAEEDNLATTTLGSALSLPVGTLNRPRGSQSLLSPSSGYMPMNQGNLGESCQESAVSGSSERCPRPVSLHPMPRGCLASESSEGHVTGSEAELQEKVSMCRSRSRSRSPRPRGDSAYHSQRHSLLTPVTPLSPPGLEEEDVNGYVMPDTHLKGTPSSREGTLSSVGLSSVLGTEEEDEDEEYEYMNRRRRHSPPHPPRPSSLEELGYEYMDVGSDLSASLGSTQSCPLHPVPIMPTAGTTPDEDYEYMNRQRDGGGPGGDYAAMGACPASEQGYEEMRAFQGPGHQAPHVHYARLKTLRSLEATDSAFDNPDYWHSRLFPKANAQRT

> <PDB ID(s) of Target Chain>
3KEX,4RIX,4RIY,5CUS,5O4O,5O7P,6OP9

> <UniProt (SwissProt) Recommended Name of Target Chain>
Receptor tyrosine-protein kinase erbB-3

> <UniProt (SwissProt) Entry Name of Target Chain>
ERBB3_HUMAN

> <UniProt (SwissProt) Primary ID of Target Chain>
P21860

> <UniProt (SwissProt) Secondary ID(s) of Target Chain>
A8K6L6,B4DIK7,B4DV32,E9PDT8,Q9BUD7

> <UniProt (SwissProt) Alternative ID(s) of Target Chain>


> <UniProt (TrEMBL) Submitted Name of Target Chain>


> <UniProt (TrEMBL) Entry Name of Target Chain>


> <UniProt (TrEMBL) Primary ID of Target Chain>


> <UniProt (TrEMBL) Secondary ID(s) of Target Chain>


> <UniProt (TrEMBL) Alternative ID(s) of Target Chain>


> <training label>
7.48149

> <i_lp_mmshare_version>
54117

> <s_epik_input>
W0NIMl0xW0NAQEhdKFtDSDJdMilbQ0gyXVtDQEBIXShbQ0gyXTMpW0NIMl1bQ0BIXTFbQ0gyXUMyM1tOSF1DKD1PKWMoW2NIXVtjSF1jNFtDSDNdKVtjSF1jNFtOSF1jNW5bY0hdbmMoYzU2KVtjSF1jKE9bQ0gzXSljKFtjSF02KU9bQ0gyXVtDSDJdW0NIMl1ON1tDSDJdW0NIMl1PW0NIMl1bQ0gyXTc=

> <s_epik_cmdline>
J2VwaWtfcHl0aG9uJywgJy1waHQnLCAnMC4xJywgJy1waCcsICc3LjQnLCAnLXRuJywgJzgnLCAnLW1hJywgJzIwMCcsICctaW1hZScsICc8aW5maWxlLm1hZT4nLCAnLW9tYWUnLCAnPG91dGZpbGUubWFlPic=

> <r_lp_tautomer_probability>
0.999978000241998

> <r_epik_Ionization_Penalty>
  0.1968

> <r_epik_Ionization_Penalty_Charging>
  0.0000

> <r_epik_Ionization_Penalty_Neutral>
  0.1968

> <r_epik_State_Penalty>
  0.1860

> <r_epik_Charging_Adjusted_Penalty>
0.186024314191534

> <i_epik_Tot_Q>
0

> <i_epik_Tot_abs_Q>
0

> <i_f3d_flags>
0

> <s_lp_Force_Field>
OPLS_2005

> <r_lp_Energy>
71.570537

> <b_lp_Chiralities_Consistent>
1

> <s_lp_Variant>
/home/bortolaa/Project/GT/mario-master/ligands/set505ligs_train.sdf:170-1

> <s_i_glide_gridfile>
struct_1_site_1

> <i_i_glide_lignum>
194

> <i_i_glide_rotatable_bonds>
11

> <r_i_docking_score>
-6.23567464580072

> <r_i_glide_ligand_efficiency>
-0.145015689437226

> <r_i_glide_ligand_efficiency_sa>
-0.508047684463065

> <r_i_glide_ligand_efficiency_ln>
-1.30968547724913

> <r_i_glide_gscore>
-6.42167464580072

> <r_i_glide_lipo>
-2.45416562841374

> <r_i_glide_hbond>
-0.594837527100887

> <r_i_glide_metal>
0

> <r_i_glide_rewards>
-0.409309589535454

> <r_i_glide_evdw>
-49.7438125610352

> <r_i_glide_ecoul>
-6.13699579238892

> <r_i_glide_erotb>
0.444378096159455

> <r_i_glide_esite>
0

> <r_i_glide_emodel>
-22.3122696770526

> <r_i_glide_energy>
-55.8808083534241

> <r_i_glide_einternal>
8.69316673278809

> <i_i_glide_confnum>
342

> <i_i_glide_posenum>
310

> <r_i_glide_eff_state_penalty>
0.186

> <IC50 (nM)>
33

> <PMID>
26829280

> <r_glide_shape_similarity>
0.475007832050323

> <s_m_subgroup_title>
505 training

> <s_m_subgroupid>
pocket_pv

> <b_m_subgroup_collapsed>
0

$$$$
BindingDB_50144589_mol_1
                    3D
 Schrodinger Suite 2021-2.
 75 79  0  0  1  0            999 V2000
   20.4221    3.5290   48.2761 N   0  0  0  0  0  0
   21.5675    3.8731   48.8987 C   0  0  0  0  0  0
   22.0602    4.8066   47.8386 C   0  0  1  0  0  0
   19.2968    3.0325   48.8598 C   0  0  0  0  0  0
   20.6544    4.5324   47.1997 C   0  0  1  0  0  0
   19.5085    2.1158   49.8401 N   0  0  0  0  0  0
   20.6517   -0.0685   53.1884 C   0  0  0  0  0  0
   20.2027    0.3385   51.9654 N   0  0  0  0  0  0
   20.7279    3.9352   45.7597 C   0  0  0  0  0  0
   22.4529    6.2253   48.3180 C   0  0  0  0  0  0
   22.0648    3.5802   49.9906 O   0  0  0  0  0  0
   22.1335   -0.0052   53.4832 C   0  0  0  0  0  0
   18.1667    3.4403   48.5720 O   0  0  0  0  0  0
   18.5194    1.8564   50.9077 C   0  0  0  0  0  0
   20.3413    0.9558   49.5030 C   0  0  0  0  0  0
   21.0170    0.3002   50.7328 C   0  0  0  0  0  0
   18.7734    0.5338   51.6914 C   0  0  0  0  0  0
   19.8932   -0.5186   54.0447 O   0  0  0  0  0  0
   26.1281    7.1343   50.5659 N   0  3  0  0  0  0
   24.9731   -0.0296   53.8365 C   0  0  0  0  0  0
   21.8390    3.5905   45.2743 O   0  0  0  0  0  0
   22.9409    1.0814   53.0524 C   0  0  0  0  0  0
   22.7469   -1.0186   54.2560 C   0  0  0  0  0  0
   24.1498   -1.0053   54.4519 C   0  0  0  0  0  0
   24.3476    1.0424   53.1632 C   0  0  0  0  0  0
   26.5081   -0.1772   53.9010 C   0  0  0  0  0  0
   19.6354    3.8023   45.1608 O   0  5  0  0  0  0
   23.9526    6.4274   48.6883 C   0  0  0  0  0  0
   25.6972    8.1162   49.5424 C   0  0  0  0  0  0
   25.9513    5.7237   50.1433 C   0  0  0  0  0  0
   26.9895   -1.5149   53.2815 C   0  0  0  0  0  0
   27.3322    0.9704   53.2616 C   0  0  0  0  0  0
   24.2208    7.8883   49.1477 C   0  0  0  0  0  0
   24.4828    5.4403   49.7664 C   0  0  0  0  0  0
   28.8362    0.7652   53.5386 C   0  0  0  0  0  0
   28.4813   -1.8143   53.5539 C   0  0  0  0  0  0
   29.3938   -0.6557   53.2098 C   0  0  0  0  0  0
   22.8772    4.3077   47.3163 H   0  0  0  0  0  0
   19.9805    5.3898   47.2426 H   0  0  0  0  0  0
   21.8290    6.5131   49.1671 H   0  0  0  0  0  0
   22.2028    6.9382   47.5284 H   0  0  0  0  0  0
   18.5517    2.6964   51.5986 H   0  0  0  0  0  0
   17.5124    1.8312   50.4927 H   0  0  0  0  0  0
   19.6245    0.3340   48.9999 H   0  0  0  0  0  0
   21.1028    1.1421   48.7436 H   0  0  0  0  0  0
   21.2730   -0.7360   50.5056 H   0  0  0  0  0  0
   21.9615    0.8220   50.8311 H   0  0  0  0  0  0
   18.1565    0.5284   52.5898 H   0  0  0  0  0  0
   18.4287   -0.3125   51.0895 H   0  0  0  0  0  0
   25.5928    7.2724   51.4218 H   0  0  0  0  0  0
   22.4882    1.9310   52.5628 H   0  0  0  0  0  0
   22.1621   -1.8298   54.6630 H   0  0  0  0  0  0
   24.5969   -1.8001   55.0332 H   0  0  0  0  0  0
   24.9159    1.8490   52.7288 H   0  0  0  0  0  0
   26.7459   -0.2031   54.9653 H   0  0  0  0  0  0
   24.5297    6.2550   47.7798 H   0  0  0  0  0  0
   25.8379    9.1228   49.9355 H   0  0  0  0  0  0
   26.3428    8.0138   48.6686 H   0  0  0  0  0  0
   26.2588    5.0602   50.9512 H   0  0  0  0  0  0
   26.6145    5.5204   49.3018 H   0  0  0  0  0  0
   26.4089   -2.3535   53.6664 H   0  0  0  0  0  0
   26.8142   -1.5028   52.2046 H   0  0  0  0  0  0
   27.1502    1.0091   52.1876 H   0  0  0  0  0  0
   27.0241    1.9289   53.6726 H   0  0  0  0  0  0
   23.5796    8.1277   49.9952 H   0  0  0  0  0  0
   23.9496    8.5812   48.3534 H   0  0  0  0  0  0
   24.4125    4.4108   49.4128 H   0  0  0  0  0  0
   23.8692    5.5080   50.6652 H   0  0  0  0  0  0
   29.0087    0.9652   54.5952 H   0  0  0  0  0  0
   29.4121    1.5218   53.0037 H   0  0  0  0  0  0
   28.6825   -2.0670   54.5741 H   0  0  0  0  0  0
   28.7841   -2.7051   52.9997 H   0  0  0  0  0  0
   30.3586   -0.7784   53.6934 H   0  0  0  0  0  0
   29.5885   -0.8575   52.1745 H   0  0  0  0  0  0
   27.1092    7.2722   50.8157 H   0  0  0  0  0  0
  1  2  1  0  0  0
  1  4  1  0  0  0
  1  5  1  0  0  0
  2 11  2  0  0  0
  2  3  1  0  0  0
  3  5  1  0  0  0
  3 10  1  0  0  0
  3 38  1  0  0  0
  4  6  1  0  0  0
  4 13  2  0  0  0
  5  9  1  0  0  0
  5 39  1  0  0  0
  6 14  1  0  0  0
  6 15  1  0  0  0
  7  8  1  0  0  0
  7 12  1  0  0  0
  7 18  2  0  0  0
  8 16  1  0  0  0
  8 17  1  0  0  0
  9 21  2  0  0  0
  9 27  1  0  0  0
 10 28  1  0  0  0
 10 40  1  0  0  0
 10 41  1  0  0  0
 12 22  1  0  0  0
 12 23  2  0  0  0
 14 17  1  0  0  0
 14 42  1  0  0  0
 14 43  1  0  0  0
 15 16  1  0  0  0
 15 44  1  0  0  0
 15 45  1  0  0  0
 16 46  1  0  0  0
 16 47  1  0  0  0
 17 48  1  0  0  0
 17 49  1  0  0  0
 19 30  1  0  0  0
 19 29  1  0  0  0
 19 50  1  0  0  0
 19 75  1  0  0  0
 20 24  2  0  0  0
 20 26  1  0  0  0
 20 25  1  0  0  0
 22 25  2  0  0  0
 22 51  1  0  0  0
 23 24  1  0  0  0
 23 52  1  0  0  0
 24 53  1  0  0  0
 25 54  1  0  0  0
 26 31  1  0  0  0
 26 32  1  0  0  0
 26 55  1  0  0  0
 28 33  1  0  0  0
 28 34  1  0  0  0
 28 56  1  0  0  0
 29 33  1  0  0  0
 29 57  1  0  0  0
 29 58  1  0  0  0
 30 34  1  0  0  0
 30 59  1  0  0  0
 30 60  1  0  0  0
 31 36  1  0  0  0
 31 61  1  0  0  0
 31 62  1  0  0  0
 32 35  1  0  0  0
 32 63  1  0  0  0
 32 64  1  0  0  0
 33 65  1  0  0  0
 33 66  1  0  0  0
 34 67  1  0  0  0
 34 68  1  0  0  0
 35 37  1  0  0  0
 35 69  1  0  0  0
 35 70  1  0  0  0
 36 37  1  0  0  0
 36 71  1  0  0  0
 36 72  1  0  0  0
 37 73  1  0  0  0
 37 74  1  0  0  0
M  CHG  2  19   1  27  -1
M  END
> <s_m_entry_id>
430

> <s_m_entry_name>
pocket_pv.241

> <s_m_Source_Path>
/home/bortolaa/Project/GT/mario-master/docking/set505protein_struct_1_site_1_set505ligs_train

> <s_m_Source_File>
pocket_pv.maegz

> <i_m_Source_File_Index>
241

> <From>
www.bindingDB.org

> <BindingDB Reactant_set_id>
50463830

> <Ligand InChI>
InChI=1S/C29H30ClN5O3/c1-37-26-17-24-25(18-27(26)38-15-14-35-12-3-2-4-13-35)31-19-32-28(24)33-22-8-10-23(11-9-22)34-29(36)20-6-5-7-21(30)16-20/h5-11,16-19H,2-4,12-15H2,1H3,(H,34,36)(H,31,32,33)

> <Ligand InChI Key>
IBYFQHBVYWWLLA-UHFFFAOYSA-N

> <BindingDB MonomerID>
50144589

> <BindingDB Ligand Name>
CHEMBL3759848

> <Target Name Assigned by Curator or DataSource>
Epidermal growth factor receptor

> <Target Source Organism According to Curator or DataSource>
Homo sapiens

> <Ki (nM)>


> <Kd (nM)>


> <EC50 (nM)>


> <kon (M-1-s-1)>


> <koff (s-1)>


> <pH>


> <Temp C>


> <Curation/DataSource>
ChEMBL

> <Article DOI>
10.1016/j.ejmech.2015.12.032

> <PubChem AID>


> <Patent Number>


> <Authors>
Zhang, HQ; Gong, FH; Li, CG; Zhang, C; Wang, YJ; Xu, YG; Sun, LP

> <Institution>
China Pharmaceutical University

> <Link to Ligand in BindingDB>
http://www.bindingdb.org/bind/chemsearch/marvin/MolStructure.jsp?monomerid=50144589

> <Link to Ligand-Target Pair in BindingDB>
http://www.bindingdb.org/jsp/dbsearch/PrimarySearch_ki.jsp?energyterm=kJ/mole&tag=r21&monomerid=50144589&enzyme=Epidermal+growth+factor+receptor&column=ki&startPg=0&Increment=50&submit=Search

> <Ligand HET ID in PDB>


> <PDB ID(s) for Ligand-Target Complex>


> <PubChem CID>
44311669

> <PubChem SID>
104033679

> <ChEBI ID of Ligand>


> <ChEMBL ID of Ligand>
CHEMBL3759848

> <DrugBank ID of Ligand>


> <IUPHAR_GRAC ID of Ligand>


> <KEGG ID of Ligand>


> <ZINC ID of Ligand>
ZINC26295113

> <Number of Protein Chains in Target (>
1

> <BindingDB Target Chain Sequence>
MRPSGTAGAALLALLAALCPASRALEEKKVCQGTSNKLTQLGTFEDHFLSLQRMFNNCEVVLGNLEITYVQRNYDLSFLKTIQEVAGYVLIALNTVERIPLENLQIIRGNMYYENSYALAVLSNYDANKTGLKELPMRNLQEILHGAVRFSNNPALCNVESIQWRDIVSSDFLSNMSMDFQNHLGSCQKCDPSCPNGSCWGAGEENCQKLTKIICAQQCSGRCRGKSPSDCCHNQCAAGCTGPRESDCLVCRKFRDEATCKDTCPPLMLYNPTTYQMDVNPEGKYSFGATCVKKCPRNYVVTDHGSCVRACGADSYEMEEDGVRKCKKCEGPCRKVCNGIGIGEFKDSLSINATNIKHFKNCTSISGDLHILPVAFRGDSFTHTPPLDPQELDILKTVKEITGFLLIQAWPENRTDLHAFENLEIIRGRTKQHGQFSLAVVSLNITSLGLRSLKEISDGDVIISGNKNLCYANTINWKKLFGTSGQKTKIISNRGENSCKATGQVCHALCSPEGCWGPEPRDCVSCRNVSRGRECVDKCNLLEGEPREFVENSECIQCHPECLPQAMNITCTGRGPDNCIQCAHYIDGPHCVKTCPAGVMGENNTLVWKYADAGHVCHLCHPNCTYGCTGPGLEGCPTNGPKIPSIATGMVGALLLLLVVALGIGLFMRRRHIVRKRTLRRLLQERELVEPLTPSGEAPNQALLRILKETEFKKIKVLGSGAFGTVYKGLWIPEGEKVKIPVAIKELREATSPKANKEILDEAYVMASVDNPHVCRLLGICLTSTVQLITQLMPFGCLLDYVREHKDNIGSQYLLNWCVQIAKGMNYLEDRRLVHRDLAARNVLVKTPQHVKITDFGLAKLLGAEEKEYHAEGGKVPIKWMALESILHRIYTHQSDVWSYGVTVWELMTFGSKPYDGIPASEISSILEKGERLPQPPICTIDVYMIMVKCWMIDADSRPKFRELIIEFSKMARDPQRYLVIQGDERMHLPSPTDSNFYRALMDEEDMDDVVDADEYLIPQQGFFSSPSTSRTPLLSSLSATSNNSTVACIDRNGLQSCPIKEDSFLQRYSSDPTGALTEDSIDDTFLPVPEYINQSVPKRPAGSVQNPVYHNQPLNPAPSRDPHYQDPHSTAVGNPEYLNTVQPTCVNSTFDSPAHWAQKGSHQISLDNPDYQQDFFPKEAKPNGIFKGSTAENAEYLRVAPQSSEFIGA

> <PDB ID(s) of Target Chain>
1IVO,1M14,1M17,1MOX,1XKK,1Z9I,2GS2,2GS6,2ITW,2ITX,2ITY,2J5E,2J5F,2J6M,2RF9,2RGP,3B2V,3BEL,3GOP,3POZ,3QWQ,3VJO,3W2O,3W2P,3W2Q,3W2R,3W2S,3W32,3W33,4G5J,4I23,4JQ7,4JQ8,4JR3,4JRV,4KRO,4LI5,4RJ4,4RJ5,4RJ6,4RJ7,4RJ8,4TKS,4UIP,4UV7,4WKQ,4WRG,4ZAU,5C8K,5C8M,5C8N,5CAL,5CAN,5CAO,5CAP,5CAQ,5CAS,5CAU,5CAV,5EDP,5EDQ,5EDR,5EM5,5EM6,5EM7,5EM8,5FED,5GNK,5HCX,5HCY,5HCZ,5HIB,5HIC,5UGB,5WB7,5WB8,5Y25,6S89,6S8A

> <UniProt (SwissProt) Recommended Name of Target Chain>
Epidermal growth factor receptor

> <UniProt (SwissProt) Entry Name of Target Chain>
EGFR_HUMAN

> <UniProt (SwissProt) Primary ID of Target Chain>
P00533

> <UniProt (SwissProt) Secondary ID(s) of Target Chain>
O00688,O00732,P06268,Q14225,Q68GS5,Q92795,Q9BZS2,Q9GZX1,Q9H2C9,Q9H3C9,Q9UMD7,Q9UMD8,Q9UMG5

> <UniProt (SwissProt) Alternative ID(s) of Target Chain>


> <UniProt (TrEMBL) Submitted Name of Target Chain>


> <UniProt (TrEMBL) Entry Name of Target Chain>


> <UniProt (TrEMBL) Primary ID of Target Chain>


> <UniProt (TrEMBL) Secondary ID(s) of Target Chain>


> <UniProt (TrEMBL) Alternative ID(s) of Target Chain>


> <training label>
6.52288

> <i_lp_mmshare_version>
54117

> <s_epik_input>
W0NIMl0xW0NIMl1bTkhdW0NIMl1bQ0gyXVtDSF0xW0NIMl1bQ0BIXShbQ0BIXTJDKD1PKVtPSF0pQyg9TylOMkMoPU8pTjNbQ0gyXVtDSDJdTihbQ0gyXVtDSDJdMylDKD1PKWM0W2NIXVtjSF1jKFtjSF1bY0hdNClbQ0hdNVtDSDJdW0NIMl1bQ0gyXVtDSDJdW0NIMl01

> <s_epik_cmdline>
J2VwaWtfcHl0aG9uJywgJy1waHQnLCAnMC4xJywgJy1waCcsICc3LjQnLCAnLXRuJywgJzgnLCAnLW1hJywgJzIwMCcsICctaW1hZScsICc8aW5maWxlLm1hZT4nLCAnLW9tYWUnLCAnPG91dGZpbGUubWFlPic=

> <r_lp_tautomer_probability>
1

> <r_epik_Ionization_Penalty>
  0.0009

> <r_epik_Ionization_Penalty_Charging>
  0.0009

> <r_epik_Ionization_Penalty_Neutral>
  0.0000

> <r_epik_State_Penalty>
  0.0000

> <r_epik_Charging_Adjusted_Penalty>
0.000863842342194346

> <i_epik_Tot_Q>
0

> <i_epik_Tot_abs_Q>
2

> <i_f3d_flags>
0

> <s_lp_Force_Field>
OPLS_2005

> <r_lp_Energy>
92.756877

> <b_lp_Chiralities_Consistent>
1

> <s_lp_Variant>
BindingDB_50144589_mol_1-1

> <s_i_glide_gridfile>
struct_1_site_1

> <i_i_glide_lignum>
126

> <i_i_glide_rotatable_bonds>
8

> <r_i_docking_score>
-6.22538689093036

> <r_i_glide_ligand_efficiency>
-0.168253699754875

> <r_i_glide_ligand_efficiency_sa>
-0.56065865426864

> <r_i_glide_ligand_efficiency_ln>
-1.35014047286743

> <r_i_glide_gscore>
-6.22538689093036

> <r_i_glide_lipo>
-3.19681673826062

> <r_i_glide_hbond>
-0.00917077377939162

> <r_i_glide_metal>
0

> <r_i_glide_rewards>
-0.654018754403541

> <r_i_glide_evdw>
-38.6059646606445

> <r_i_glide_ecoul>
-5.99499988555908

> <r_i_glide_erotb>
0.55003114540534

> <r_i_glide_esite>
-0.0858635540260592

> <r_i_glide_emodel>
-22.4891812611721

> <r_i_glide_energy>
-44.6009645462036

> <r_i_glide_einternal>
4.86321401596069

> <i_i_glide_confnum>
46

> <i_i_glide_posenum>
388

> <r_i_glide_eff_state_penalty>
0

> <IC50 (nM)>
300

> <PMID>
26826581

> <r_glide_shape_similarity>
0.532536566257477

> <s_m_subgroup_title>
505 training

> <s_m_subgroupid>
pocket_pv

> <b_m_subgroup_collapsed>
0

$$$$
BindingDB_50040438_mol_1
                    3D
 Schrodinger Suite 2021-2.
 52 56  0  0  1  0            999 V2000
   19.8941    0.5566   52.0901 C   0  0  0  0  0  0
   20.8244    1.5078   51.5831 N   0  0  0  0  0  0
   18.5678    0.5255   51.5796 C   0  0  0  0  0  0
   20.2619   -0.2725   53.0798 N   0  0  0  0  0  0
   28.3968    1.0739   53.8274 C   0  0  0  0  0  0
   29.4886    2.7301   54.5097 N   0  0  0  0  0  0
   29.4596    1.4015   54.5743 N   0  5  0  0  0  0
   28.4406    3.1336   53.7747 N   0  0  0  0  0  0
   20.7038    2.0204   50.3258 C   0  0  0  0  0  0
   27.7462    2.1044   53.2969 N   0  0  0  0  0  0
   18.0728   -1.1726   53.2238 N   0  0  0  0  0  0
   17.6526   -0.3489   52.2347 C   0  0  0  0  0  0
   28.1371   -0.3287   53.4687 C   0  0  0  0  0  0
   19.3599   -1.0959   53.5706 C   0  0  0  0  0  0
   26.8657   -0.8477   53.0875 C   0  0  0  0  0  0
   18.2230    1.4313   50.3944 C   0  0  0  0  0  0
   21.7936    2.0386   52.5670 C   0  0  0  0  0  0
   25.5840   -0.0904   53.0801 C   0  0  0  0  0  0
   19.4624    1.6515   49.4957 C   0  0  0  0  0  0
   21.5357    2.7792   49.8214 O   0  0  0  0  0  0
   24.4916   -0.4000   53.9381 C   0  0  0  0  0  0
   25.3912    0.8890   52.0827 C   0  0  0  0  0  0
   23.0828    1.2411   52.7711 C   0  0  0  0  0  0
   23.2440    0.2455   53.7742 C   0  0  0  0  0  0
   24.1733    1.5704   51.9482 C   0  0  0  0  0  0
   16.1626   -0.4530   51.8950 C   0  0  0  0  0  0
   29.2581   -1.2059   53.4823 C   0  0  0  0  0  0
   26.8120   -2.1754   52.5978 C   0  0  0  0  0  0
   15.3296    0.3211   52.7458 O   0  0  0  0  0  0
   19.9303   -2.1652   54.4536 C   0  0  0  0  0  0
   29.1564   -2.5495   53.1031 C   0  0  0  0  0  0
   27.9393   -3.0183   52.6043 C   0  0  0  0  0  0
   17.4280    0.9949   49.7928 H   0  0  0  0  0  0
   17.8545    2.3812   50.7785 H   0  0  0  0  0  0
   22.0532    3.0702   52.3269 H   0  0  0  0  0  0
   21.2792    2.1168   53.5173 H   0  0  0  0  0  0
   19.2586    2.4235   48.7535 H   0  0  0  0  0  0
   19.6920    0.7414   48.9402 H   0  0  0  0  0  0
   24.6035   -1.1594   54.7005 H   0  0  0  0  0  0
   26.1938    1.1244   51.4002 H   0  0  0  0  0  0
   22.4266    0.0016   54.4372 H   0  0  0  0  0  0
   24.0734    2.3361   51.1870 H   0  0  0  0  0  0
   15.8582   -1.4983   51.9960 H   0  0  0  0  0  0
   15.9702   -0.1945   50.8505 H   0  0  0  0  0  0
   30.2313   -0.8496   53.7835 H   0  0  0  0  0  0
   25.8893   -2.5512   52.1942 H   0  0  0  0  0  0
   15.4135   -0.0054   53.6351 H   0  0  0  0  0  0
   20.6579   -1.7612   55.1567 H   0  0  0  0  0  0
   19.1587   -2.7086   54.9978 H   0  0  0  0  0  0
   20.4328   -2.8576   53.7801 H   0  0  0  0  0  0
   30.0072   -3.2063   53.1311 H   0  0  0  0  0  0
   27.8821   -4.0315   52.2320 H   0  0  0  0  0  0
  1  2  1  0  0  0
  1  3  2  0  0  0
  1  4  1  0  0  0
  2  9  1  0  0  0
  2 17  1  0  0  0
  3 12  1  0  0  0
  3 16  1  0  0  0
  4 14  2  0  0  0
  5 13  1  0  0  0
  5 10  2  0  0  0
  5  7  1  0  0  0
  6  8  2  0  0  0
  6  7  1  0  0  0
  8 10  1  0  0  0
  9 20  2  0  0  0
  9 19  1  0  0  0
 11 14  1  0  0  0
 11 12  2  0  0  0
 12 26  1  0  0  0
 13 15  2  0  0  0
 13 27  1  0  0  0
 14 30  1  0  0  0
 15 18  1  0  0  0
 15 28  1  0  0  0
 16 19  1  0  0  0
 16 33  1  0  0  0
 16 34  1  0  0  0
 17 23  1  0  0  0
 17 35  1  0  0  0
 17 36  1  0  0  0
 18 22  2  0  0  0
 18 21  1  0  0  0
 19 37  1  0  0  0
 19 38  1  0  0  0
 21 24  2  0  0  0
 21 39  1  0  0  0
 22 25  1  0  0  0
 22 40  1  0  0  0
 23 24  1  0  0  0
 23 25  2  0  0  0
 24 41  1  0  0  0
 25 42  1  0  0  0
 26 29  1  0  0  0
 26 43  1  0  0  0
 26 44  1  0  0  0
 27 31  2  0  0  0
 27 45  1  0  0  0
 28 32  2  0  0  0
 28 46  1  0  0  0
 29 47  1  0  0  0
 30 48  1  0  0  0
 30 49  1  0  0  0
 30 50  1  0  0  0
 31 32  1  0  0  0
 31 51  1  0  0  0
 32 52  1  0  0  0
M  CHG  1   7  -1
M  END
> <s_m_entry_id>
431

> <s_m_entry_name>
pocket_pv.242

> <s_m_Source_Path>
/home/bortolaa/Project/GT/mario-master/docking/set505protein_struct_1_site_1_set505ligs_train

> <s_m_Source_File>
pocket_pv.maegz

> <i_m_Source_File_Index>
242

> <From>
www.bindingDB.org

> <BindingDB Reactant_set_id>
50258915

> <Ligand InChI>
InChI=1S/C25H24N6O4/c1-3-18-8-7-9-19(14-18)29-24-20-15-22(34-2)23(16-21(20)27-17-28-24)35-13-6-4-5-11-30-12-10-26-25(30)31(32)33/h1,7-10,12,14-17H,4-6,11,13H2,2H3,(H,27,28,29)

> <Ligand InChI Key>
JXNSKQIOTGMCHY-UHFFFAOYSA-N

> <BindingDB MonomerID>
50040438

> <BindingDB Ligand Name>
CHEMBL3360609

> <Target Name Assigned by Curator or DataSource>
Epidermal growth factor receptor

> <Target Source Organism According to Curator or DataSource>
Homo sapiens

> <Ki (nM)>


> <Kd (nM)>


> <EC50 (nM)>


> <kon (M-1-s-1)>


> <koff (s-1)>


> <pH>


> <Temp C>


> <Curation/DataSource>
ChEMBL

> <Article DOI>
10.1016/j.bmc.2014.10.038

> <PubChem AID>


> <Patent Number>


> <Authors>
Cheng, W; Yuan, Y; Qiu, N; Peng, P; Sheng, R; Hu, Y

> <Institution>
TBA

> <Link to Ligand in BindingDB>
http://www.bindingdb.org/bind/chemsearch/marvin/MolStructure.jsp?monomerid=50040438

> <Link to Ligand-Target Pair in BindingDB>
http://www.bindingdb.org/jsp/dbsearch/PrimarySearch_ki.jsp?energyterm=kJ/mole&tag=r21&monomerid=50040438&enzyme=Epidermal+growth+factor+receptor&column=ki&startPg=0&Increment=50&submit=Search

> <Ligand HET ID in PDB>


> <PDB ID(s) for Ligand-Target Complex>


> <PubChem CID>
101879115

> <PubChem SID>
103972482

> <ChEBI ID of Ligand>


> <ChEMBL ID of Ligand>
CHEMBL3360609

> <DrugBank ID of Ligand>


> <IUPHAR_GRAC ID of Ligand>


> <KEGG ID of Ligand>


> <ZINC ID of Ligand>
ZINC01484179

> <Number of Protein Chains in Target (>
1

> <BindingDB Target Chain Sequence>
MRPSGTAGAALLALLAALCPASRALEEKKVCQGTSNKLTQLGTFEDHFLSLQRMFNNCEVVLGNLEITYVQRNYDLSFLKTIQEVAGYVLIALNTVERIPLENLQIIRGNMYYENSYALAVLSNYDANKTGLKELPMRNLQEILHGAVRFSNNPALCNVESIQWRDIVSSDFLSNMSMDFQNHLGSCQKCDPSCPNGSCWGAGEENCQKLTKIICAQQCSGRCRGKSPSDCCHNQCAAGCTGPRESDCLVCRKFRDEATCKDTCPPLMLYNPTTYQMDVNPEGKYSFGATCVKKCPRNYVVTDHGSCVRACGADSYEMEEDGVRKCKKCEGPCRKVCNGIGIGEFKDSLSINATNIKHFKNCTSISGDLHILPVAFRGDSFTHTPPLDPQELDILKTVKEITGFLLIQAWPENRTDLHAFENLEIIRGRTKQHGQFSLAVVSLNITSLGLRSLKEISDGDVIISGNKNLCYANTINWKKLFGTSGQKTKIISNRGENSCKATGQVCHALCSPEGCWGPEPRDCVSCRNVSRGRECVDKCNLLEGEPREFVENSECIQCHPECLPQAMNITCTGRGPDNCIQCAHYIDGPHCVKTCPAGVMGENNTLVWKYADAGHVCHLCHPNCTYGCTGPGLEGCPTNGPKIPSIATGMVGALLLLLVVALGIGLFMRRRHIVRKRTLRRLLQERELVEPLTPSGEAPNQALLRILKETEFKKIKVLGSGAFGTVYKGLWIPEGEKVKIPVAIKELREATSPKANKEILDEAYVMASVDNPHVCRLLGICLTSTVQLITQLMPFGCLLDYVREHKDNIGSQYLLNWCVQIAKGMNYLEDRRLVHRDLAARNVLVKTPQHVKITDFGLAKLLGAEEKEYHAEGGKVPIKWMALESILHRIYTHQSDVWSYGVTVWELMTFGSKPYDGIPASEISSILEKGERLPQPPICTIDVYMIMVKCWMIDADSRPKFRELIIEFSKMARDPQRYLVIQGDERMHLPSPTDSNFYRALMDEEDMDDVVDADEYLIPQQGFFSSPSTSRTPLLSSLSATSNNSTVACIDRNGLQSCPIKEDSFLQRYSSDPTGALTEDSIDDTFLPVPEYINQSVPKRPAGSVQNPVYHNQPLNPAPSRDPHYQDPHSTAVGNPEYLNTVQPTCVNSTFDSPAHWAQKGSHQISLDNPDYQQDFFPKEAKPNGIFKGSTAENAEYLRVAPQSSEFIGA

> <PDB ID(s) of Target Chain>
1IVO,1M14,1M17,1MOX,1XKK,1Z9I,2GS2,2GS6,2ITW,2ITX,2ITY,2J5E,2J5F,2J6M,2RF9,2RGP,3B2V,3BEL,3GOP,3POZ,3QWQ,3VJO,3W2O,3W2P,3W2Q,3W2R,3W2S,3W32,3W33,4G5J,4I23,4JQ7,4JQ8,4JR3,4JRV,4KRO,4LI5,4RJ4,4RJ5,4RJ6,4RJ7,4RJ8,4TKS,4UIP,4UV7,4WKQ,4WRG,4ZAU,5C8K,5C8M,5C8N,5CAL,5CAN,5CAO,5CAP,5CAQ,5CAS,5CAU,5CAV,5EDP,5EDQ,5EDR,5EM5,5EM6,5EM7,5EM8,5FED,5GNK,5HCX,5HCY,5HCZ,5HIB,5HIC,5UGB,5WB7,5WB8,5Y25,6S89,6S8A

> <UniProt (SwissProt) Recommended Name of Target Chain>
Epidermal growth factor receptor

> <UniProt (SwissProt) Entry Name of Target Chain>
EGFR_HUMAN

> <UniProt (SwissProt) Primary ID of Target Chain>
P00533

> <UniProt (SwissProt) Secondary ID(s) of Target Chain>
O00688,O00732,P06268,Q14225,Q68GS5,Q92795,Q9BZS2,Q9GZX1,Q9H2C9,Q9H3C9,Q9UMD7,Q9UMD8,Q9UMG5

> <UniProt (SwissProt) Alternative ID(s) of Target Chain>


> <UniProt (TrEMBL) Submitted Name of Target Chain>


> <UniProt (TrEMBL) Entry Name of Target Chain>


> <UniProt (TrEMBL) Primary ID of Target Chain>


> <UniProt (TrEMBL) Secondary ID(s) of Target Chain>


> <UniProt (TrEMBL) Alternative ID(s) of Target Chain>


> <training label>
9.3279

> <i_lp_mmshare_version>
54117

> <s_epik_input>
bjFjKFtDSDNdKW5jKFtDSDJdW09IXSljKGMxMilbQ0gyXVtDSDJdQyg9TylOMltDSDJdYyhbY0hdW2NIXTMpW2NIXVtjSF1jMy1jKFtjSF1bY0hdW2NIXVtjSF00KWM0LWM1bm5bbkhdbjU=

> <s_epik_cmdline>
J2VwaWtfcHl0aG9uJywgJy1waHQnLCAnMC4xJywgJy1waCcsICc3LjQnLCAnLXRuJywgJzgnLCAnLW1hJywgJzIwMCcsICctaW1hZScsICc8aW5maWxlLm1hZT4nLCAnLW9tYWUnLCAnPG91dGZpbGUubWFlPic=

> <r_lp_tautomer_probability>
1

> <r_epik_Ionization_Penalty>
  0.0005

> <r_epik_Ionization_Penalty_Charging>
  0.0003

> <r_epik_Ionization_Penalty_Neutral>
  0.0001

> <r_epik_State_Penalty>
  0.0000

> <r_epik_Charging_Adjusted_Penalty>
0.000348033583698045

> <i_epik_Tot_Q>
-1

> <i_epik_Tot_abs_Q>
1

> <i_f3d_flags>
0

> <s_lp_Force_Field>
OPLS_2005

> <r_lp_Energy>
32.795453

> <b_lp_Chiralities_Consistent>
1

> <s_lp_Variant>
BindingDB_50040438_mol_1-1

> <s_i_glide_gridfile>
struct_1_site_1

> <i_i_glide_lignum>
288

> <i_i_glide_rotatable_bonds>
6

> <r_i_docking_score>
-6.20563205068911

> <r_i_glide_ligand_efficiency>
-0.193926001584035

> <r_i_glide_ligand_efficiency_sa>
-0.615676677125709

> <r_i_glide_ligand_efficiency_ln>
-1.38961017529016

> <r_i_glide_gscore>
-6.20563205068911

> <r_i_glide_lipo>
-3.38000815073256

> <r_i_glide_hbond>
0

> <r_i_glide_metal>
0

> <r_i_glide_rewards>
-1.34714196016268

> <r_i_glide_evdw>
-38.2243041992188

> <r_i_glide_ecoul>
-0.568052768707275

> <r_i_glide_erotb>
0.545644439663777

> <r_i_glide_esite>
-0.02770325419062

> <r_i_glide_emodel>
-27.2425172462185

> <r_i_glide_energy>
-38.792356967926

> <r_i_glide_einternal>
1.56210708618164

> <i_i_glide_confnum>
349

> <i_i_glide_posenum>
6

> <r_i_glide_eff_state_penalty>
0

> <IC50 (nM)>
0.47

> <PMID>
25468044

> <r_glide_shape_similarity>
0.681483089923859

> <s_m_subgroup_title>
505 training

> <s_m_subgroupid>
pocket_pv

> <b_m_subgroup_collapsed>
0

$$$$
/home/bortolaa/Project/GT/mario-master/ligands/set505ligs_train.sdf:17
                    3D
 Schrodinger Suite 2021-2.
 74 77  0  0  1  0            999 V2000
   16.8577    0.4127   51.9604 C   0  0  0  0  0  0
   15.4744    0.3970   52.2821 C   0  0  0  0  0  0
   14.7162    1.5371   51.8863 C   0  0  0  0  0  0
   15.2804    2.5543   51.1982 N   0  0  0  0  0  0
   16.5715    2.4514   50.9034 C   0  0  0  0  0  0
   17.3707    1.4513   51.2607 N   0  0  0  0  0  0
   13.3488    1.6100   52.2171 C   0  0  0  0  0  0
   12.6891    0.5453   52.8776 C   0  0  0  0  0  0
   13.4379   -0.6040   53.2296 C   0  0  0  0  0  0
   14.8325   -0.6594   52.9665 C   0  0  0  0  0  0
   12.7458   -1.6503   53.8038 O   0  0  0  0  0  0
   13.1375   -2.9656   53.4204 C   0  0  0  0  0  0
   11.3299    0.5440   53.1644 O   0  0  0  0  0  0
   10.4696    1.5442   52.5981 C   0  0  0  0  0  0
   10.2341    1.2954   51.0858 C   0  0  0  0  0  0
    9.3608    2.3339   50.4533 N   0  3  0  0  0  0
    9.7654    2.7024   49.0663 C   0  0  0  0  0  0
    7.8953    2.0693   50.5998 C   0  0  0  0  0  0
   11.0283    3.5907   49.0353 C   0  0  0  0  0  0
    7.3530    0.9333   49.7018 C   0  0  0  0  0  0
   17.7404   -0.5920   52.4111 N   0  0  0  0  0  0
   19.1222   -0.4591   52.6407 C   0  0  0  0  0  0
   19.6958   -1.0856   53.7755 C   0  0  0  0  0  0
   21.0323   -0.8231   54.1419 C   0  0  0  0  0  0
   21.7724    0.0866   53.3588 C   0  0  0  0  0  0
   21.2561    0.6133   52.1680 C   0  0  0  0  0  0
   19.9496    0.3122   51.7903 C   0  0  0  0  0  0
   22.9897    0.6249   53.7606 N   0  0  0  0  0  0
   24.1043   -0.0667   53.9204 C   0  0  0  0  0  0
   25.1229    0.6829   53.4739 N   0  0  0  0  0  0
   24.1604   -1.1766   54.4494 O   0  0  0  0  0  0
   26.4898    0.3701   53.4289 C   0  0  0  0  0  0
   26.9635   -0.9605   53.3765 C   0  0  0  0  0  0
   28.3424   -1.2138   53.3629 C   0  0  0  0  0  0
   29.2450   -0.1287   53.3759 C   0  0  0  0  0  0
   28.7668    1.2006   53.3757 C   0  0  0  0  0  0
   27.3879    1.4555   53.4007 C   0  0  0  0  0  0
   30.5974   -0.3323   53.3761 O   0  0  0  0  0  0
   31.0469   -1.2509   54.3591 C   0  0  0  0  0  0
   17.0179    3.2644   50.3506 H   0  0  0  0  0  0
   12.8254    2.5038   51.9187 H   0  0  0  0  0  0
   15.4010   -1.5214   53.2734 H   0  0  0  0  0  0
   12.4297   -3.6841   53.8337 H   0  0  0  0  0  0
   13.1220   -3.0726   52.3350 H   0  0  0  0  0  0
   14.1279   -3.2387   53.7816 H   0  0  0  0  0  0
    9.5180    1.4829   53.1256 H   0  0  0  0  0  0
   10.8450    2.5492   52.7933 H   0  0  0  0  0  0
   11.1971    1.2715   50.5765 H   0  0  0  0  0  0
    9.8131    0.3002   50.9366 H   0  0  0  0  0  0
    9.9084    1.8026   48.4650 H   0  0  0  0  0  0
    8.9552    3.2683   48.6024 H   0  0  0  0  0  0
    7.6691    1.8474   51.6425 H   0  0  0  0  0  0
    7.3608    2.9936   50.3764 H   0  0  0  0  0  0
   11.2495    3.9097   48.0164 H   0  0  0  0  0  0
   10.8894    4.4897   49.6371 H   0  0  0  0  0  0
   11.9105    3.0716   49.4127 H   0  0  0  0  0  0
    6.2811    0.8102   49.8553 H   0  0  0  0  0  0
    7.4997    1.1450   48.6435 H   0  0  0  0  0  0
    7.8225   -0.0254   49.9240 H   0  0  0  0  0  0
   17.2951   -1.2757   53.0004 H   0  0  0  0  0  0
   19.0889   -1.7057   54.4190 H   0  0  0  0  0  0
   21.4409   -1.2334   55.0535 H   0  0  0  0  0  0
   21.8439    1.2815   51.5548 H   0  0  0  0  0  0
   19.6007    0.7248   50.8594 H   0  0  0  0  0  0
   23.1359    1.5611   53.4161 H   0  0  0  0  0  0
   24.9038    1.6178   53.1629 H   0  0  0  0  0  0
   26.2855   -1.8014   53.3545 H   0  0  0  0  0  0
   28.6864   -2.2367   53.3271 H   0  0  0  0  0  0
   29.4705    2.0222   53.3702 H   0  0  0  0  0  0
   27.0330    2.4776   53.4156 H   0  0  0  0  0  0
   32.1338   -1.2660   54.4262 H   0  0  0  0  0  0
   30.6864   -2.2610   54.1739 H   0  0  0  0  0  0
   30.6888   -0.8953   55.3215 H   0  0  0  0  0  0
    9.4883    3.2192   50.9757 H   0  0  0  0  0  0
  1  2  2  0  0  0
  1  6  1  0  0  0
  1 21  1  0  0  0
  2 10  1  0  0  0
  2  3  1  0  0  0
  3  4  2  0  0  0
  3  7  1  0  0  0
  4  5  1  0  0  0
  5  6  2  0  0  0
  5 40  1  0  0  0
  7  8  2  0  0  0
  7 41  1  0  0  0
  8  9  1  0  0  0
  8 13  1  0  0  0
  9 10  2  0  0  0
  9 11  1  0  0  0
 10 42  1  0  0  0
 11 12  1  0  0  0
 12 43  1  0  0  0
 12 44  1  0  0  0
 12 45  1  0  0  0
 13 14  1  0  0  0
 14 15  1  0  0  0
 14 46  1  0  0  0
 14 47  1  0  0  0
 15 16  1  0  0  0
 15 48  1  0  0  0
 15 49  1  0  0  0
 16 17  1  0  0  0
 16 18  1  0  0  0
 16 74  1  0  0  0
 17 19  1  0  0  0
 17 50  1  0  0  0
 17 51  1  0  0  0
 18 20  1  0  0  0
 18 52  1  0  0  0
 18 53  1  0  0  0
 19 54  1  0  0  0
 19 55  1  0  0  0
 19 56  1  0  0  0
 20 57  1  0  0  0
 20 58  1  0  0  0
 20 59  1  0  0  0
 21 22  1  0  0  0
 21 60  1  0  0  0
 22 23  2  0  0  0
 22 27  1  0  0  0
 23 24  1  0  0  0
 23 61  1  0  0  0
 24 25  2  0  0  0
 24 62  1  0  0  0
 25 26  1  0  0  0
 25 28  1  0  0  0
 26 27  2  0  0  0
 26 63  1  0  0  0
 27 64  1  0  0  0
 28 29  1  0  0  0
 28 65  1  0  0  0
 29 30  1  0  0  0
 29 31  2  0  0  0
 30 32  1  0  0  0
 30 66  1  0  0  0
 32 33  2  0  0  0
 32 37  1  0  0  0
 33 34  1  0  0  0
 33 67  1  0  0  0
 34 35  2  0  0  0
 34 68  1  0  0  0
 35 36  1  0  0  0
 35 38  1  0  0  0
 36 37  2  0  0  0
 36 69  1  0  0  0
 37 70  1  0  0  0
 38 39  1  0  0  0
 39 71  1  0  0  0
 39 72  1  0  0  0
 39 73  1  0  0  0
M  CHG  1  16   1
M  END
> <s_m_entry_id>
432

> <s_m_entry_name>
pocket_pv.243

> <s_m_Source_Path>
/home/bortolaa/Project/GT/mario-master/docking/set505protein_struct_1_site_1_set505ligs_train

> <s_m_Source_File>
pocket_pv.maegz

> <i_m_Source_File_Index>
243

> <From>
www.bindingDB.org

> <BindingDB Reactant_set_id>
406587

> <Ligand InChI>
InChI=1S/C29H34N6O4/c1-5-35(6-2)15-16-39-27-18-25-24(17-26(27)38-4)28(31-19-30-25)32-20-7-9-21(10-8-20)33-29(36)34-22-11-13-23(37-3)14-12-22/h7-14,17-19H,5-6,15-16H2,1-4H3,(H,30,31,32)(H2,33,34,36)

> <Ligand InChI Key>
PGJBYKDTBCDEOE-UHFFFAOYSA-N

> <BindingDB MonomerID>
233102

> <BindingDB Ligand Name>
N-{4-[7-(2-Diethylaminoethoxy)-6-methoxy-quinazolin-4-ylamino]phenyl}-N&#39;-(4-methoxy phenyl)urea hydrochloride (7e)

> <Target Name Assigned by Curator or DataSource>
Epidermal growth factor receptor

> <Target Source Organism According to Curator or DataSource>
Homo sapiens

> <Ki (nM)>


> <IC50 (nM)>
17100

> <Kd (nM)>


> <EC50 (nM)>


> <kon (M-1-s-1)>


> <koff (s-1)>


> <Temp C>


> <Curation/DataSource>
Curated from the literature by BindingDB

> <Article DOI>
10.3109/14756360903169485

> <PubChem AID>


> <Patent Number>


> <Authors>
Garofalo, A; Goossens, L; Lemoine, A; Farce, A; Arlot, Y; Depreux, P

> <Institution>
Université Lille Nord de France

> <Link to Ligand in BindingDB>
http://www.bindingdb.org/bind/chemsearch/marvin/MolStructure.jsp?monomerid=233102

> <Link to Ligand-Target Pair in BindingDB>
http://www.bindingdb.org/jsp/dbsearch/PrimarySearch_ki.jsp?energyterm=kJ/mole&tag=r21&monomerid=233102&enzyme=Epidermal+growth+factor+receptor&column=ki&startPg=0&Increment=50&submit=Search

> <Ligand HET ID in PDB>


> <PDB ID(s) for Ligand-Target Complex>


> <PubChem CID>
129010601

> <PubChem SID>
340093196

> <ChEBI ID of Ligand>


> <ChEMBL ID of Ligand>


> <DrugBank ID of Ligand>


> <IUPHAR_GRAC ID of Ligand>


> <KEGG ID of Ligand>


> <ZINC ID of Ligand>


> <Number of Protein Chains in Target (>
1

> <BindingDB Target Chain Sequence>
MRPSGTAGAALLALLAALCPASRALEEKKVCQGTSNKLTQLGTFEDHFLSLQRMFNNCEVVLGNLEITYVQRNYDLSFLKTIQEVAGYVLIALNTVERIPLENLQIIRGNMYYENSYALAVLSNYDANKTGLKELPMRNLQEILHGAVRFSNNPALCNVESIQWRDIVSSDFLSNMSMDFQNHLGSCQKCDPSCPNGSCWGAGEENCQKLTKIICAQQCSGRCRGKSPSDCCHNQCAAGCTGPRESDCLVCRKFRDEATCKDTCPPLMLYNPTTYQMDVNPEGKYSFGATCVKKCPRNYVVTDHGSCVRACGADSYEMEEDGVRKCKKCEGPCRKVCNGIGIGEFKDSLSINATNIKHFKNCTSISGDLHILPVAFRGDSFTHTPPLDPQELDILKTVKEITGFLLIQAWPENRTDLHAFENLEIIRGRTKQHGQFSLAVVSLNITSLGLRSLKEISDGDVIISGNKNLCYANTINWKKLFGTSGQKTKIISNRGENSCKATGQVCHALCSPEGCWGPEPRDCVSCRNVSRGRECVDKCNLLEGEPREFVENSECIQCHPECLPQAMNITCTGRGPDNCIQCAHYIDGPHCVKTCPAGVMGENNTLVWKYADAGHVCHLCHPNCTYGCTGPGLEGCPTNGPKIPSIATGMVGALLLLLVVALGIGLFMRRRHIVRKRTLRRLLQERELVEPLTPSGEAPNQALLRILKETEFKKIKVLGSGAFGTVYKGLWIPEGEKVKIPVAIKELREATSPKANKEILDEAYVMASVDNPHVCRLLGICLTSTVQLITQLMPFGCLLDYVREHKDNIGSQYLLNWCVQIAKGMNYLEDRRLVHRDLAARNVLVKTPQHVKITDFGLAKLLGAEEKEYHAEGGKVPIKWMALESILHRIYTHQSDVWSYGVTVWELMTFGSKPYDGIPASEISSILEKGERLPQPPICTIDVYMIMVKCWMIDADSRPKFRELIIEFSKMARDPQRYLVIQGDERMHLPSPTDSNFYRALMDEEDMDDVVDADEYLIPQQGFFSSPSTSRTPLLSSLSATSNNSTVACIDRNGLQSCPIKEDSFLQRYSSDPTGALTEDSIDDTFLPVPEYINQSVPKRPAGSVQNPVYHNQPLNPAPSRDPHYQDPHSTAVGNPEYLNTVQPTCVNSTFDSPAHWAQKGSHQISLDNPDYQQDFFPKEAKPNGIFKGSTAENAEYLRVAPQSSEFIGA

> <PDB ID(s) of Target Chain>
1IVO,1M14,1M17,1MOX,1XKK,1Z9I,2GS2,2GS6,2ITW,2ITX,2ITY,2J5E,2J5F,2J6M,2RF9,2RGP,3B2V,3BEL,3GOP,3POZ,3QWQ,3VJO,3W2O,3W2P,3W2Q,3W2R,3W2S,3W32,3W33,4G5J,4I23,4JQ7,4JQ8,4JR3,4JRV,4KRO,4LI5,4RJ4,4RJ5,4RJ6,4RJ7,4RJ8,4TKS,4UIP,4UV7,4WKQ,4WRG,4ZAU,5C8K,5C8M,5C8N,5CAL,5CAN,5CAO,5CAP,5CAQ,5CAS,5CAU,5CAV,5EDP,5EDQ,5EDR,5EM5,5EM6,5EM7,5EM8,5FED,5GNK,5HCX,5HCY,5HCZ,5HIB,5HIC,5UGB,5WB7,5WB8,5Y25,6S89,6S8A

> <UniProt (SwissProt) Recommended Name of Target Chain>
Epidermal growth factor receptor

> <UniProt (SwissProt) Entry Name of Target Chain>
EGFR_HUMAN

> <UniProt (SwissProt) Primary ID of Target Chain>
P00533

> <UniProt (SwissProt) Secondary ID(s) of Target Chain>
O00688,O00732,P06268,Q14225,Q68GS5,Q92795,Q9BZS2,Q9GZX1,Q9H2C9,Q9H3C9,Q9UMD7,Q9UMD8,Q9UMG5

> <UniProt (SwissProt) Alternative ID(s) of Target Chain>


> <UniProt (TrEMBL) Submitted Name of Target Chain>


> <UniProt (TrEMBL) Entry Name of Target Chain>


> <UniProt (TrEMBL) Primary ID of Target Chain>


> <UniProt (TrEMBL) Secondary ID(s) of Target Chain>


> <UniProt (TrEMBL) Alternative ID(s) of Target Chain>


> <training label>
4.767

> <i_lp_mmshare_version>
54117

> <s_epik_input>
W0NIM11bQ0gyXU4oW0NIMl1bQ0gzXSlbQ0gyXVtDSDJdT2MoYyhbY0hdMSlPW0NIM10pW2NIXWMoYzEyKW5bY0hdbmMyW05IXWMzW2NIXVtjSF1jKFtjSF1bY0hdMylbTkhdQyg9TylbTkhdYzRbY0hdW2NIXWMoW2NIXVtjSF00KU9bQ0gzXQ==

> <s_epik_cmdline>
J2VwaWtfcHl0aG9uJywgJy1waHQnLCAnMC4xJywgJy1waCcsICc3LjQnLCAnLXRuJywgJzgnLCAnLW1hJywgJzIwMCcsICctaW1hZScsICc8aW5maWxlLm1hZT4nLCAnLW9tYWUnLCAnPG91dGZpbGUubWFlPic=

> <r_lp_tautomer_probability>
0.999978000241998

> <r_epik_Ionization_Penalty>
  0.0610

> <r_epik_Ionization_Penalty_Charging>
  0.0604

> <r_epik_Ionization_Penalty_Neutral>
  0.0006

> <r_epik_State_Penalty>
  0.0524

> <r_epik_Charging_Adjusted_Penalty>
0.112841773912698

> <i_epik_Tot_Q>
1

> <i_epik_Tot_abs_Q>
1

> <i_f3d_flags>
0

> <s_lp_Force_Field>
OPLS_2005

> <r_lp_Energy>
49.289514

> <b_lp_Chiralities_Consistent>
1

> <s_lp_Variant>
/home/bortolaa/Project/GT/mario-master/ligands/set505ligs_train.sdf:17-1

> <s_i_glide_gridfile>
struct_1_site_1

> <i_i_glide_lignum>
17

> <i_i_glide_rotatable_bonds>
14

> <r_i_docking_score>
-6.18760521588327

> <r_i_glide_ligand_efficiency>
-0.158656543997007

> <r_i_glide_ligand_efficiency_sa>
-0.538037886854686

> <r_i_glide_ligand_efficiency_ln>
-1.32679820390462

> <r_i_glide_gscore>
-6.24000521588327

> <r_i_glide_lipo>
-2.86070076235213

> <r_i_glide_hbond>
-0.2

> <r_i_glide_metal>
0

> <r_i_glide_rewards>
-0.274770329925157

> <r_i_glide_evdw>
-41.5237197875977

> <r_i_glide_ecoul>
-9.70545387268066

> <r_i_glide_erotb>
0.729625279854398

> <r_i_glide_esite>
-0.102155333178401

> <r_i_glide_emodel>
-22.051859862139

> <r_i_glide_energy>
-51.2291736602783

> <r_i_glide_einternal>
10.4813013076782

> <i_i_glide_confnum>
585

> <i_i_glide_posenum>
161

> <r_i_glide_eff_state_penalty>
0.0524

> <PMID>
20222760

> <r_glide_shape_similarity>
0.544537544250488

> <pH>
7.5

> <s_m_subgroup_title>
505 training

> <s_m_subgroupid>
pocket_pv

> <b_m_subgroup_collapsed>
0

$$$$
/home/bortolaa/Project/GT/mario-master/ligands/set505ligs_train.sdf:36
                    3D
 Schrodinger Suite 2021-2.
 72 74  0  0  1  0            999 V2000
   21.2350    0.0052   53.0372 C   0  0  0  0  0  0
   19.8910    0.0139   52.6094 C   0  0  0  0  0  0
   19.0302   -0.8913   53.2699 C   0  0  0  0  0  0
   19.5140   -1.7709   54.1745 N   0  0  0  0  0  0
   20.8022   -1.6877   54.4984 C   0  0  0  0  0  0
   21.6797   -0.8344   53.9978 N   0  0  0  0  0  0
   17.6592   -0.8670   52.9550 C   0  0  0  0  0  0
   17.1468    0.0170   51.9784 C   0  0  0  0  0  0
   18.0289    0.8590   51.2448 C   0  0  0  0  0  0
   19.4057    0.8622   51.5846 C   0  0  0  0  0  0
   17.5011    1.6632   50.2454 O   0  0  0  0  0  0
   18.3959    2.3708   49.3752 C   0  0  0  0  0  0
   15.7970    0.0353   51.7152 O   0  0  0  0  0  0
   14.9386    0.2292   52.8426 C   0  0  0  0  0  0
   14.1089    1.4965   52.5376 C   0  0  0  0  0  0
   13.2672    2.0091   53.6703 N   0  3  0  0  0  0
   12.8401    3.4297   53.4289 C   0  0  0  0  0  0
   12.1081    1.1062   53.9737 C   0  0  0  0  0  0
   13.9093    4.4660   53.8512 C   0  0  0  0  0  0
   11.4930    1.3403   55.3733 C   0  0  0  0  0  0
   22.1162    0.9162   52.4623 N   0  0  0  0  0  0
   23.4572    1.1399   52.7606 C   0  0  0  0  0  0
   23.9504    2.4491   52.5745 C   0  0  0  0  0  0
   25.2995    2.7413   52.8332 C   0  0  0  0  0  0
   26.1576    1.7199   53.2717 C   0  0  0  0  0  0
   25.6672    0.3965   53.4226 C   0  0  0  0  0  0
   24.3252    0.1080   53.1763 C   0  0  0  0  0  0
   27.5050    2.0477   53.5055 N   0  0  0  0  0  0
   28.3064    1.2213   54.1736 C   0  0  0  0  0  0
   29.4898    1.0756   53.5852 N   0  0  0  0  0  0
   27.9502    0.5947   55.1782 O   0  0  0  0  0  0
   30.3884   -0.0088   53.9445 C   0  0  0  0  0  0
   30.1075   -1.3292   53.2158 C   0  0  0  0  0  0
   28.6478   -1.8051   53.1849 C   0  0  0  0  0  0
   28.5377   -3.2591   52.7271 C   0  0  0  0  0  0
   21.1732   -2.4334   55.1909 H   0  0  0  0  0  0
   16.9985   -1.5442   53.4767 H   0  0  0  0  0  0
   20.0812    1.5188   51.0602 H   0  0  0  0  0  0
   17.8179    2.8674   48.5949 H   0  0  0  0  0  0
   18.9465    3.1460   49.9119 H   0  0  0  0  0  0
   19.0977    1.6919   48.8854 H   0  0  0  0  0  0
   14.3099   -0.6510   52.9561 H   0  0  0  0  0  0
   15.4875    0.3617   53.7746 H   0  0  0  0  0  0
   14.8118    2.2796   52.2529 H   0  0  0  0  0  0
   13.4800    1.3321   51.6605 H   0  0  0  0  0  0
   12.5733    3.5646   52.3783 H   0  0  0  0  0  0
   11.9290    3.6578   53.9800 H   0  0  0  0  0  0
   11.3438    1.2202   53.1991 H   0  0  0  0  0  0
   12.4284    0.0649   53.9356 H   0  0  0  0  0  0
   13.5738    5.4825   53.6404 H   0  0  0  0  0  0
   14.1144    4.4071   54.9202 H   0  0  0  0  0  0
   14.8523    4.3240   53.3245 H   0  0  0  0  0  0
   10.7149    0.6012   55.5727 H   0  0  0  0  0  0
   12.2348    1.2487   56.1640 H   0  0  0  0  0  0
   11.0281    2.3229   55.4651 H   0  0  0  0  0  0
   21.6716    1.6206   51.8897 H   0  0  0  0  0  0
   23.2978    3.2430   52.2408 H   0  0  0  0  0  0
   25.6621    3.7505   52.6962 H   0  0  0  0  0  0
   26.2912   -0.4299   53.7177 H   0  0  0  0  0  0
   23.9996   -0.9150   53.2634 H   0  0  0  0  0  0
   27.8945    2.7976   52.9492 H   0  0  0  0  0  0
   29.7686    1.6883   52.8334 H   0  0  0  0  0  0
   30.2899   -0.2102   55.0043 H   0  0  0  0  0  0
   31.4099    0.3335   53.7733 H   0  0  0  0  0  0
   30.6869   -2.0837   53.7385 H   0  0  0  0  0  0
   30.4990   -1.2653   52.2054 H   0  0  0  0  0  0
   28.0629   -1.1700   52.5231 H   0  0  0  0  0  0
   28.2142   -1.7279   54.1764 H   0  0  0  0  0  0
   27.4986   -3.5562   52.5867 H   0  0  0  0  0  0
   28.9872   -3.9357   53.4546 H   0  0  0  0  0  0
   29.0568   -3.3916   51.7818 H   0  0  0  0  0  0
   13.8513    2.0260   54.5056 H   0  0  0  0  0  0
  1  2  2  0  0  0
  1  6  1  0  0  0
  1 21  1  0  0  0
  2 10  1  0  0  0
  2  3  1  0  0  0
  3  4  2  0  0  0
  3  7  1  0  0  0
  4  5  1  0  0  0
  5  6  2  0  0  0
  5 36  1  0  0  0
  7  8  2  0  0  0
  7 37  1  0  0  0
  8  9  1  0  0  0
  8 13  1  0  0  0
  9 10  2  0  0  0
  9 11  1  0  0  0
 10 38  1  0  0  0
 11 12  1  0  0  0
 12 39  1  0  0  0
 12 40  1  0  0  0
 12 41  1  0  0  0
 13 14  1  0  0  0
 14 15  1  0  0  0
 14 42  1  0  0  0
 14 43  1  0  0  0
 15 16  1  0  0  0
 15 44  1  0  0  0
 15 45  1  0  0  0
 16 17  1  0  0  0
 16 18  1  0  0  0
 16 72  1  0  0  0
 17 19  1  0  0  0
 17 46  1  0  0  0
 17 47  1  0  0  0
 18 20  1  0  0  0
 18 48  1  0  0  0
 18 49  1  0  0  0
 19 50  1  0  0  0
 19 51  1  0  0  0
 19 52  1  0  0  0
 20 53  1  0  0  0
 20 54  1  0  0  0
 20 55  1  0  0  0
 21 22  1  0  0  0
 21 56  1  0  0  0
 22 23  2  0  0  0
 22 27  1  0  0  0
 23 24  1  0  0  0
 23 57  1  0  0  0
 24 25  2  0  0  0
 24 58  1  0  0  0
 25 26  1  0  0  0
 25 28  1  0  0  0
 26 27  2  0  0  0
 26 59  1  0  0  0
 27 60  1  0  0  0
 28 29  1  0  0  0
 28 61  1  0  0  0
 29 30  1  0  0  0
 29 31  2  0  0  0
 30 32  1  0  0  0
 30 62  1  0  0  0
 32 33  1  0  0  0
 32 63  1  0  0  0
 32 64  1  0  0  0
 33 34  1  0  0  0
 33 65  1  0  0  0
 33 66  1  0  0  0
 34 35  1  0  0  0
 34 67  1  0  0  0
 34 68  1  0  0  0
 35 69  1  0  0  0
 35 70  1  0  0  0
 35 71  1  0  0  0
M  CHG  1  16   1
M  END
> <s_m_entry_id>
433

> <s_m_entry_name>
pocket_pv.244

> <s_m_Source_Path>
/home/bortolaa/Project/GT/mario-master/docking/set505protein_struct_1_site_1_set505ligs_train

> <s_m_Source_File>
pocket_pv.maegz

> <i_m_Source_File_Index>
244

> <From>
www.bindingDB.org

> <BindingDB Reactant_set_id>
406596

> <Ligand InChI>
InChI=1S/C26H36N6O3/c1-5-8-13-27-26(33)31-20-11-9-19(10-12-20)30-25-21-16-23(34-4)24(17-22(21)28-18-29-25)35-15-14-32(6-2)7-3/h9-12,16-18H,5-8,13-15H2,1-4H3,(H2,27,31,33)(H,28,29,30)

> <Ligand InChI Key>
MOFPQQBOMHDLLE-UHFFFAOYSA-N

> <BindingDB MonomerID>
233109

> <BindingDB Ligand Name>
N-{4-[7-(2-Diethylaminoethoxy)-6-methoxy-quinazolin-4-ylamino]phenyl}-N&#39;-butylurea hydrochloride (7h)

> <Target Name Assigned by Curator or DataSource>
Epidermal growth factor receptor

> <Target Source Organism According to Curator or DataSource>
Homo sapiens

> <Ki (nM)>


> <IC50 (nM)>
5200

> <Kd (nM)>


> <EC50 (nM)>


> <kon (M-1-s-1)>


> <koff (s-1)>


> <Temp C>


> <Curation/DataSource>
Curated from the literature by BindingDB

> <Article DOI>
10.3109/14756360903169485

> <PubChem AID>


> <Patent Number>


> <Authors>
Garofalo, A; Goossens, L; Lemoine, A; Farce, A; Arlot, Y; Depreux, P

> <Institution>
Université Lille Nord de France

> <Link to Ligand in BindingDB>
http://www.bindingdb.org/bind/chemsearch/marvin/MolStructure.jsp?monomerid=233109

> <Link to Ligand-Target Pair in BindingDB>
http://www.bindingdb.org/jsp/dbsearch/PrimarySearch_ki.jsp?energyterm=kJ/mole&tag=r21&monomerid=233109&enzyme=Epidermal+growth+factor+receptor&column=ki&startPg=0&Increment=50&submit=Search

> <Ligand HET ID in PDB>


> <PDB ID(s) for Ligand-Target Complex>


> <PubChem CID>
129010607

> <PubChem SID>
340093203

> <ChEBI ID of Ligand>


> <ChEMBL ID of Ligand>


> <DrugBank ID of Ligand>


> <IUPHAR_GRAC ID of Ligand>


> <KEGG ID of Ligand>


> <ZINC ID of Ligand>


> <Number of Protein Chains in Target (>
1

> <BindingDB Target Chain Sequence>
MRPSGTAGAALLALLAALCPASRALEEKKVCQGTSNKLTQLGTFEDHFLSLQRMFNNCEVVLGNLEITYVQRNYDLSFLKTIQEVAGYVLIALNTVERIPLENLQIIRGNMYYENSYALAVLSNYDANKTGLKELPMRNLQEILHGAVRFSNNPALCNVESIQWRDIVSSDFLSNMSMDFQNHLGSCQKCDPSCPNGSCWGAGEENCQKLTKIICAQQCSGRCRGKSPSDCCHNQCAAGCTGPRESDCLVCRKFRDEATCKDTCPPLMLYNPTTYQMDVNPEGKYSFGATCVKKCPRNYVVTDHGSCVRACGADSYEMEEDGVRKCKKCEGPCRKVCNGIGIGEFKDSLSINATNIKHFKNCTSISGDLHILPVAFRGDSFTHTPPLDPQELDILKTVKEITGFLLIQAWPENRTDLHAFENLEIIRGRTKQHGQFSLAVVSLNITSLGLRSLKEISDGDVIISGNKNLCYANTINWKKLFGTSGQKTKIISNRGENSCKATGQVCHALCSPEGCWGPEPRDCVSCRNVSRGRECVDKCNLLEGEPREFVENSECIQCHPECLPQAMNITCTGRGPDNCIQCAHYIDGPHCVKTCPAGVMGENNTLVWKYADAGHVCHLCHPNCTYGCTGPGLEGCPTNGPKIPSIATGMVGALLLLLVVALGIGLFMRRRHIVRKRTLRRLLQERELVEPLTPSGEAPNQALLRILKETEFKKIKVLGSGAFGTVYKGLWIPEGEKVKIPVAIKELREATSPKANKEILDEAYVMASVDNPHVCRLLGICLTSTVQLITQLMPFGCLLDYVREHKDNIGSQYLLNWCVQIAKGMNYLEDRRLVHRDLAARNVLVKTPQHVKITDFGLAKLLGAEEKEYHAEGGKVPIKWMALESILHRIYTHQSDVWSYGVTVWELMTFGSKPYDGIPASEISSILEKGERLPQPPICTIDVYMIMVKCWMIDADSRPKFRELIIEFSKMARDPQRYLVIQGDERMHLPSPTDSNFYRALMDEEDMDDVVDADEYLIPQQGFFSSPSTSRTPLLSSLSATSNNSTVACIDRNGLQSCPIKEDSFLQRYSSDPTGALTEDSIDDTFLPVPEYINQSVPKRPAGSVQNPVYHNQPLNPAPSRDPHYQDPHSTAVGNPEYLNTVQPTCVNSTFDSPAHWAQKGSHQISLDNPDYQQDFFPKEAKPNGIFKGSTAENAEYLRVAPQSSEFIGA

> <PDB ID(s) of Target Chain>
1IVO,1M14,1M17,1MOX,1XKK,1Z9I,2GS2,2GS6,2ITW,2ITX,2ITY,2J5E,2J5F,2J6M,2RF9,2RGP,3B2V,3BEL,3GOP,3POZ,3QWQ,3VJO,3W2O,3W2P,3W2Q,3W2R,3W2S,3W32,3W33,4G5J,4I23,4JQ7,4JQ8,4JR3,4JRV,4KRO,4LI5,4RJ4,4RJ5,4RJ6,4RJ7,4RJ8,4TKS,4UIP,4UV7,4WKQ,4WRG,4ZAU,5C8K,5C8M,5C8N,5CAL,5CAN,5CAO,5CAP,5CAQ,5CAS,5CAU,5CAV,5EDP,5EDQ,5EDR,5EM5,5EM6,5EM7,5EM8,5FED,5GNK,5HCX,5HCY,5HCZ,5HIB,5HIC,5UGB,5WB7,5WB8,5Y25,6S89,6S8A

> <UniProt (SwissProt) Recommended Name of Target Chain>
Epidermal growth factor receptor

> <UniProt (SwissProt) Entry Name of Target Chain>
EGFR_HUMAN

> <UniProt (SwissProt) Primary ID of Target Chain>
P00533

> <UniProt (SwissProt) Secondary ID(s) of Target Chain>
O00688,O00732,P06268,Q14225,Q68GS5,Q92795,Q9BZS2,Q9GZX1,Q9H2C9,Q9H3C9,Q9UMD7,Q9UMD8,Q9UMG5

> <UniProt (SwissProt) Alternative ID(s) of Target Chain>


> <UniProt (TrEMBL) Submitted Name of Target Chain>


> <UniProt (TrEMBL) Entry Name of Target Chain>


> <UniProt (TrEMBL) Primary ID of Target Chain>


> <UniProt (TrEMBL) Secondary ID(s) of Target Chain>


> <UniProt (TrEMBL) Alternative ID(s) of Target Chain>


> <training label>
5.284

> <i_lp_mmshare_version>
54117

> <s_epik_input>
W0NIM11bQ0gyXVtDSDJdW0NIMl1bTkhdQyg9TylbTkhdYyhbY0hdW2NIXTEpW2NIXVtjSF1jMVtOSF1jMm5bY0hdbmMoYzIzKVtjSF1jKGMoW2NIXTMpT1tDSDNdKU9bQ0gyXVtDSDJdTihbQ0gyXVtDSDNdKVtDSDJdW0NIM10=

> <s_epik_cmdline>
J2VwaWtfcHl0aG9uJywgJy1waHQnLCAnMC4xJywgJy1waCcsICc3LjQnLCAnLXRuJywgJzgnLCAnLW1hJywgJzIwMCcsICctaW1hZScsICc8aW5maWxlLm1hZT4nLCAnLW9tYWUnLCAnPG91dGZpbGUubWFlPic=

> <r_lp_tautomer_probability>
0.999978000241998

> <r_epik_Ionization_Penalty>
  0.0610

> <r_epik_Ionization_Penalty_Charging>
  0.0604

> <r_epik_Ionization_Penalty_Neutral>
  0.0006

> <r_epik_State_Penalty>
  0.0524

> <r_epik_Charging_Adjusted_Penalty>
0.112841773912698

> <i_epik_Tot_Q>
1

> <i_epik_Tot_abs_Q>
1

> <i_f3d_flags>
0

> <s_lp_Force_Field>
OPLS_2005

> <r_lp_Energy>
34.793496

> <b_lp_Chiralities_Consistent>
1

> <s_lp_Variant>
/home/bortolaa/Project/GT/mario-master/ligands/set505ligs_train.sdf:36-1

> <s_i_glide_gridfile>
struct_1_site_1

> <i_i_glide_lignum>
36

> <i_i_glide_rotatable_bonds>
15

> <r_i_docking_score>
-6.1761610929923

> <r_i_glide_ligand_efficiency>
-0.176461745514066

> <r_i_glide_ligand_efficiency_sa>
-0.577218070104062

> <r_i_glide_ligand_efficiency_ln>
-1.355804432422

> <r_i_glide_gscore>
-6.2285610929923

> <r_i_glide_lipo>
-3.1153590889378

> <r_i_glide_hbond>
-0.0380810495690279

> <r_i_glide_metal>
0

> <r_i_glide_rewards>
-0.698925120014588

> <r_i_glide_evdw>
-51.3481674194336

> <r_i_glide_ecoul>
-5.02008485794067

> <r_i_glide_erotb>
0.962123410727216

> <r_i_glide_esite>
-0.0178981455353122

> <r_i_glide_emodel>
-40.8141760594859

> <r_i_glide_energy>
-56.3682522773743

> <r_i_glide_einternal>
11.3620300292969

> <i_i_glide_confnum>
448

> <i_i_glide_posenum>
307

> <r_i_glide_eff_state_penalty>
0.0524

> <PMID>
20222760

> <r_glide_shape_similarity>
0.632458686828613

> <pH>
7.5

> <s_m_subgroup_title>
505 training

> <s_m_subgroupid>
pocket_pv

> <b_m_subgroup_collapsed>
0

$$$$
BindingDB_50380450_mol_1
                    3D
 Schrodinger Suite 2021-2.
 54 56  0  0  1  0            999 V2000
   25.8796    3.2334   50.8978 C   0  0  0  0  0  0
   24.7039    4.2272   51.1469 C   0  0  0  0  0  0
   25.0888    5.6621   51.3744 N   0  3  0  0  0  0
   25.6858    6.3465   50.1732 C   0  0  0  0  0  0
   26.1735    7.7979   50.4261 C   0  0  0  0  0  0
   23.9768    6.4226   52.0391 C   0  0  0  0  0  0
   22.6638    6.4995   51.2239 C   0  0  0  0  0  0
   26.6076    2.8318   52.0632 O   0  0  0  0  0  0
   26.1678    1.7558   52.8131 C   0  0  0  0  0  0
   27.1581    1.0813   53.5594 C   0  0  0  0  0  0
   26.7667    0.0349   54.4290 C   0  0  0  0  0  0
   24.8142    1.3150   52.8707 C   0  0  0  0  0  0
   28.4642    1.4974   53.3958 O   0  0  0  0  0  0
   24.4237    0.2689   53.7451 C   0  0  0  0  0  0
   25.4070   -0.3464   54.5670 C   0  0  0  0  0  0
   25.0409   -1.2673   55.4885 N   0  0  0  0  0  0
   23.7558   -1.6357   55.5470 C   0  0  0  0  0  0
   22.7729   -1.1771   54.7770 N   0  0  0  0  0  0
   23.0880   -0.2143   53.8796 C   0  0  0  0  0  0
   22.0784    0.3144   53.0620 N   0  0  0  0  0  0
   20.7079    0.0248   52.9274 C   0  0  0  0  0  0
   20.0382    0.7220   51.8882 C   0  0  0  0  0  0
   18.6500    0.5722   51.6964 C   0  0  0  0  0  0
   17.9087   -0.2922   52.5284 C   0  0  0  0  0  0
   18.5738   -1.0277   53.5396 C   0  0  0  0  0  0
   19.9643   -0.8699   53.7485 C   0  0  0  0  0  0
   16.0089   -0.3937   52.3286 Br  0  0  0  0  0  0
   29.4536    0.9564   54.2627 C   0  0  0  0  0  0
   20.7224    1.5684   51.0717 F   0  0  0  0  0  0
   25.4870    2.3378   50.4145 H   0  0  0  0  0  0
   26.5956    3.6374   50.1833 H   0  0  0  0  0  0
   24.1189    3.8961   52.0029 H   0  0  0  0  0  0
   24.0260    4.1916   50.2931 H   0  0  0  0  0  0
   24.9714    6.3338   49.3508 H   0  0  0  0  0  0
   26.5560    5.7762   49.8427 H   0  0  0  0  0  0
   26.7326    8.1759   49.5677 H   0  0  0  0  0  0
   26.8364    7.8575   51.2887 H   0  0  0  0  0  0
   25.3432    8.4909   50.5863 H   0  0  0  0  0  0
   23.7708    5.9507   53.0031 H   0  0  0  0  0  0
   24.2900    7.4379   52.2703 H   0  0  0  0  0  0
   21.9176    7.0749   51.7719 H   0  0  0  0  0  0
   22.8143    6.9872   50.2608 H   0  0  0  0  0  0
   22.2363    5.5140   51.0479 H   0  0  0  0  0  0
   27.5015   -0.4669   55.0316 H   0  0  0  0  0  0
   24.0634    1.7904   52.2644 H   0  0  0  0  0  0
   23.4900   -2.4028   56.2580 H   0  0  0  0  0  0
   22.3999    1.0237   52.4191 H   0  0  0  0  0  0
   18.1519    1.1385   50.9230 H   0  0  0  0  0  0
   18.0083   -1.6843   54.1850 H   0  0  0  0  0  0
   20.4059   -1.4243   54.5591 H   0  0  0  0  0  0
   30.3984    1.4813   54.1253 H   0  0  0  0  0  0
   29.1658    1.1054   55.3039 H   0  0  0  0  0  0
   29.6237   -0.1031   54.0655 H   0  0  0  0  0  0
   25.8373    5.6422   52.1042 H   0  0  0  0  0  0
  1  2  1  0  0  0
  1  8  1  0  0  0
  1 30  1  0  0  0
  1 31  1  0  0  0
  2  3  1  0  0  0
  2 32  1  0  0  0
  2 33  1  0  0  0
  3  4  1  0  0  0
  3  6  1  0  0  0
  3 54  1  0  0  0
  4  5  1  0  0  0
  4 34  1  0  0  0
  4 35  1  0  0  0
  5 36  1  0  0  0
  5 37  1  0  0  0
  5 38  1  0  0  0
  6  7  1  0  0  0
  6 39  1  0  0  0
  6 40  1  0  0  0
  7 41  1  0  0  0
  7 42  1  0  0  0
  7 43  1  0  0  0
  8  9  1  0  0  0
  9 10  2  0  0  0
  9 12  1  0  0  0
 10 11  1  0  0  0
 10 13  1  0  0  0
 11 15  2  0  0  0
 11 44  1  0  0  0
 12 14  2  0  0  0
 12 45  1  0  0  0
 13 28  1  0  0  0
 14 15  1  0  0  0
 14 19  1  0  0  0
 15 16  1  0  0  0
 16 17  2  0  0  0
 17 18  1  0  0  0
 17 46  1  0  0  0
 18 19  2  0  0  0
 19 20  1  0  0  0
 20 21  1  0  0  0
 20 47  1  0  0  0
 21 22  2  0  0  0
 21 26  1  0  0  0
 22 23  1  0  0  0
 22 29  1  0  0  0
 23 24  2  0  0  0
 23 48  1  0  0  0
 24 25  1  0  0  0
 24 27  1  0  0  0
 25 26  2  0  0  0
 25 49  1  0  0  0
 26 50  1  0  0  0
 28 51  1  0  0  0
 28 52  1  0  0  0
 28 53  1  0  0  0
M  CHG  1   3   1
M  END
> <s_m_entry_id>
434

> <s_m_entry_name>
pocket_pv.245

> <s_m_Source_Path>
/home/bortolaa/Project/GT/mario-master/docking/set505protein_struct_1_site_1_set505ligs_train

> <s_m_Source_File>
pocket_pv.maegz

> <i_m_Source_File_Index>
245

> <From>
www.bindingDB.org

> <BindingDB Reactant_set_id>
50927763

> <Ligand InChI>
InChI=1S/C21H24BrFN4O2/c1-4-27(5-2)8-9-29-20-11-15-18(12-19(20)28-3)24-13-25-21(15)26-17-7-6-14(22)10-16(17)23/h6-7,10-13H,4-5,8-9H2,1-3H3,(H,24,25,26)

> <Ligand InChI Key>
FIABMQVFIWDJOZ-UHFFFAOYSA-N

> <BindingDB MonomerID>
50380450

> <BindingDB Ligand Name>
CHEMBL2018773

> <Target Name Assigned by Curator or DataSource>
Epidermal growth factor receptor

> <Target Source Organism According to Curator or DataSource>
Homo sapiens

> <Ki (nM)>


> <IC50 (nM)>
9100

> <Kd (nM)>


> <EC50 (nM)>


> <kon (M-1-s-1)>


> <koff (s-1)>


> <pH>


> <Temp C>


> <Curation/DataSource>
ChEMBL

> <Article DOI>
10.1021/jm2013453

> <PubChem AID>


> <Patent Number>


> <Authors>
Garofalo, A; Farce, A; Ravez, S; Lemoine, A; Six, P; Chavatte, P; Goossens, L; Depreux, P

> <Institution>
Univ. Lille Nord de France

> <Link to Ligand in BindingDB>
http://www.bindingdb.org/bind/chemsearch/marvin/MolStructure.jsp?monomerid=50380450

> <Link to Ligand-Target Pair in BindingDB>
http://www.bindingdb.org/jsp/dbsearch/PrimarySearch_ki.jsp?energyterm=kJ/mole&tag=r21&monomerid=50380450&enzyme=Epidermal+growth+factor+receptor&column=ki&startPg=0&Increment=50&submit=Search

> <Ligand HET ID in PDB>


> <PDB ID(s) for Ligand-Target Complex>


> <PubChem CID>
56954429

> <PubChem SID>
160859533

> <ChEBI ID of Ligand>


> <ChEMBL ID of Ligand>
CHEMBL2018773

> <DrugBank ID of Ligand>


> <IUPHAR_GRAC ID of Ligand>


> <KEGG ID of Ligand>


> <ZINC ID of Ligand>
ZINC84634471

> <Number of Protein Chains in Target (>
1

> <BindingDB Target Chain Sequence>
MRPSGTAGAALLALLAALCPASRALEEKKVCQGTSNKLTQLGTFEDHFLSLQRMFNNCEVVLGNLEITYVQRNYDLSFLKTIQEVAGYVLIALNTVERIPLENLQIIRGNMYYENSYALAVLSNYDANKTGLKELPMRNLQEILHGAVRFSNNPALCNVESIQWRDIVSSDFLSNMSMDFQNHLGSCQKCDPSCPNGSCWGAGEENCQKLTKIICAQQCSGRCRGKSPSDCCHNQCAAGCTGPRESDCLVCRKFRDEATCKDTCPPLMLYNPTTYQMDVNPEGKYSFGATCVKKCPRNYVVTDHGSCVRACGADSYEMEEDGVRKCKKCEGPCRKVCNGIGIGEFKDSLSINATNIKHFKNCTSISGDLHILPVAFRGDSFTHTPPLDPQELDILKTVKEITGFLLIQAWPENRTDLHAFENLEIIRGRTKQHGQFSLAVVSLNITSLGLRSLKEISDGDVIISGNKNLCYANTINWKKLFGTSGQKTKIISNRGENSCKATGQVCHALCSPEGCWGPEPRDCVSCRNVSRGRECVDKCNLLEGEPREFVENSECIQCHPECLPQAMNITCTGRGPDNCIQCAHYIDGPHCVKTCPAGVMGENNTLVWKYADAGHVCHLCHPNCTYGCTGPGLEGCPTNGPKIPSIATGMVGALLLLLVVALGIGLFMRRRHIVRKRTLRRLLQERELVEPLTPSGEAPNQALLRILKETEFKKIKVLGSGAFGTVYKGLWIPEGEKVKIPVAIKELREATSPKANKEILDEAYVMASVDNPHVCRLLGICLTSTVQLITQLMPFGCLLDYVREHKDNIGSQYLLNWCVQIAKGMNYLEDRRLVHRDLAARNVLVKTPQHVKITDFGLAKLLGAEEKEYHAEGGKVPIKWMALESILHRIYTHQSDVWSYGVTVWELMTFGSKPYDGIPASEISSILEKGERLPQPPICTIDVYMIMVKCWMIDADSRPKFRELIIEFSKMARDPQRYLVIQGDERMHLPSPTDSNFYRALMDEEDMDDVVDADEYLIPQQGFFSSPSTSRTPLLSSLSATSNNSTVACIDRNGLQSCPIKEDSFLQRYSSDPTGALTEDSIDDTFLPVPEYINQSVPKRPAGSVQNPVYHNQPLNPAPSRDPHYQDPHSTAVGNPEYLNTVQPTCVNSTFDSPAHWAQKGSHQISLDNPDYQQDFFPKEAKPNGIFKGSTAENAEYLRVAPQSSEFIGA

> <PDB ID(s) of Target Chain>
1IVO,1M14,1M17,1MOX,1XKK,1Z9I,2GS2,2GS6,2ITW,2ITX,2ITY,2J5E,2J5F,2J6M,2RF9,2RGP,3B2V,3BEL,3GOP,3POZ,3QWQ,3VJO,3W2O,3W2P,3W2Q,3W2R,3W2S,3W32,3W33,4G5J,4I23,4JQ7,4JQ8,4JR3,4JRV,4KRO,4LI5,4RJ4,4RJ5,4RJ6,4RJ7,4RJ8,4TKS,4UIP,4UV7,4WKQ,4WRG,4ZAU,5C8K,5C8M,5C8N,5CAL,5CAN,5CAO,5CAP,5CAQ,5CAS,5CAU,5CAV,5EDP,5EDQ,5EDR,5EM5,5EM6,5EM7,5EM8,5FED,5GNK,5HCX,5HCY,5HCZ,5HIB,5HIC,5UGB,5WB7,5WB8,5Y25,6S89,6S8A

> <UniProt (SwissProt) Recommended Name of Target Chain>
Epidermal growth factor receptor

> <UniProt (SwissProt) Entry Name of Target Chain>
EGFR_HUMAN

> <UniProt (SwissProt) Primary ID of Target Chain>
P00533

> <UniProt (SwissProt) Secondary ID(s) of Target Chain>
O00688,O00732,P06268,Q14225,Q68GS5,Q92795,Q9BZS2,Q9GZX1,Q9H2C9,Q9H3C9,Q9UMD7,Q9UMD8,Q9UMG5

> <UniProt (SwissProt) Alternative ID(s) of Target Chain>


> <UniProt (TrEMBL) Submitted Name of Target Chain>


> <UniProt (TrEMBL) Entry Name of Target Chain>


> <UniProt (TrEMBL) Primary ID of Target Chain>


> <UniProt (TrEMBL) Secondary ID(s) of Target Chain>


> <UniProt (TrEMBL) Alternative ID(s) of Target Chain>


> <training label>
5.04096

> <i_lp_mmshare_version>
54117

> <s_epik_input>
W0NIM11bQ0gyXU4oW0NIMl1bQ0gzXSlbQ0gyXVtDSDJdT2MoW2NIXTEpYyhPW0NIM10pW2NIXWMoYzEyKW5bY0hdbmMyW05IXWMzYyhGKVtjSF1jKEJyKVtjSF1bY0hdMw==

> <s_epik_cmdline>
J2VwaWtfcHl0aG9uJywgJy1waHQnLCAnMC4xJywgJy1waCcsICc3LjQnLCAnLXRuJywgJzgnLCAnLW1hJywgJzIwMCcsICctaW1hZScsICc8aW5maWxlLm1hZT4nLCAnLW9tYWUnLCAnPG91dGZpbGUubWFlPic=

> <r_lp_tautomer_probability>
0.999978000241998

> <r_epik_Ionization_Penalty>
  0.0608

> <r_epik_Ionization_Penalty_Charging>
  0.0604

> <r_epik_Ionization_Penalty_Neutral>
  0.0004

> <r_epik_State_Penalty>
  0.0524

> <r_epik_Charging_Adjusted_Penalty>
0.112841773912698

> <i_epik_Tot_Q>
1

> <i_epik_Tot_abs_Q>
1

> <i_f3d_flags>
0

> <s_lp_Force_Field>
OPLS_2005

> <r_lp_Energy>
29.21392

> <b_lp_Chiralities_Consistent>
1

> <s_lp_Variant>
BindingDB_50380450_mol_1-1

> <s_i_glide_gridfile>
struct_1_site_1

> <i_i_glide_lignum>
26

> <i_i_glide_rotatable_bonds>
9

> <r_i_docking_score>
-6.13048680434675

> <r_i_glide_ligand_efficiency>
-0.211396096701612

> <r_i_glide_ligand_efficiency_sa>
-0.649475784051683

> <r_i_glide_ligand_efficiency_ln>
-1.40372602246314

> <r_i_glide_gscore>
-6.18288680434675

> <r_i_glide_lipo>
-2.33396487872473

> <r_i_glide_hbond>
-0.164143154789635

> <r_i_glide_metal>
0

> <r_i_glide_rewards>
-0.78396733728108

> <r_i_glide_evdw>
-40.8136367797852

> <r_i_glide_ecoul>
-8.80717277526855

> <r_i_glide_erotb>
0.560946321728234

> <r_i_glide_esite>
-0.1

> <r_i_glide_emodel>
-35.5126401632597

> <r_i_glide_energy>
-49.6208095550537

> <r_i_glide_einternal>
4.37163400650024

> <i_i_glide_confnum>
39

> <i_i_glide_posenum>
147

> <r_i_glide_eff_state_penalty>
0.0524

> <PMID>
22229669

> <r_glide_shape_similarity>
0.658921778202057

> <s_m_subgroup_title>
505 training

> <s_m_subgroupid>
pocket_pv

> <b_m_subgroup_collapsed>
0

$$$$
/home/bortolaa/Project/GT/mario-master/ligands/set505ligs_train.sdf:120
                    3D
 Schrodinger Suite 2021-2.
 74 78  0  0  1  0            999 V2000
   25.6453    0.9202   53.3696 C   0  0  0  0  0  0
   27.0767    0.4828   53.4381 C   0  0  0  0  0  0
   27.4176   -0.8832   53.2648 C   0  0  0  0  0  0
   28.7545   -1.3073   53.3746 C   0  0  0  0  0  0
   29.7626   -0.3636   53.6407 C   0  0  0  0  0  0
   29.4364    1.0044   53.7735 C   0  0  0  0  0  0
   28.0983    1.4321   53.6579 C   0  0  0  0  0  0
   25.3427    2.0332   52.9466 O   0  0  0  0  0  0
   24.7849    0.0303   53.9055 N   0  0  0  0  0  0
   23.3768   -0.0559   53.7633 C   0  0  0  0  0  0
   22.6608    0.6876   52.7935 C   0  0  0  0  0  0
   21.2881    0.4595   52.5874 C   0  0  0  0  0  0
   20.6038   -0.5025   53.3704 C   0  0  0  0  0  0
   21.3181   -1.2156   54.3602 C   0  0  0  0  0  0
   22.6946   -1.0030   54.5569 C   0  0  0  0  0  0
   19.2579   -0.8640   53.1979 N   0  0  0  0  0  0
   16.0788    1.1563   51.4487 N   0  0  0  0  0  0
   17.3473    1.5659   51.3899 C   0  0  0  0  0  0
   18.4060    0.9448   51.9084 N   0  0  0  0  0  0
   18.1990   -0.2458   52.5102 C   0  0  0  0  0  0
   16.9072   -0.8374   52.5181 C   0  0  0  0  0  0
   16.6591   -2.1564   52.9748 C   0  0  0  0  0  0
   15.3595   -2.7226   52.8707 C   0  0  0  0  0  0
   14.2805   -1.9105   52.4416 C   0  0  0  0  0  0
   14.5315   -0.5773   52.0232 C   0  0  0  0  0  0
   15.8406   -0.0557   51.9919 C   0  0  0  0  0  0
   13.0307   -2.5147   52.4406 O   0  0  0  0  0  0
   11.8902   -1.7686   52.0352 C   0  0  0  0  0  0
   11.3934   -0.8323   53.1593 C   0  0  0  0  0  0
   10.3600    0.1921   52.6497 C   0  0  0  0  0  0
   11.0162    1.1575   51.7612 N   0  0  2  0  0  0
   11.6382    2.2392   52.5402 C   0  0  0  0  0  0
   12.4042    3.1955   51.6008 C   0  0  0  0  0  0
   11.4890    3.7542   50.5716 N   0  3  0  0  0  0
   10.7743    2.6706   49.8438 C   0  0  0  0  0  0
   10.0386    1.7477   50.8391 C   0  0  0  0  0  0
   12.1476    4.7305   49.6681 C   0  0  0  0  0  0
   15.0569   -4.0470   53.1426 O   0  0  0  0  0  0
   15.9350   -4.8192   53.9501 C   0  0  0  0  0  0
   26.6574   -1.6248   53.0667 H   0  0  0  0  0  0
   29.0049   -2.3515   53.2599 H   0  0  0  0  0  0
   30.7878   -0.6826   53.7360 H   0  0  0  0  0  0
   30.2188    1.7214   53.9808 H   0  0  0  0  0  0
   27.8614    2.4818   53.7744 H   0  0  0  0  0  0
   25.2094   -0.7416   54.3969 H   0  0  0  0  0  0
   23.1491    1.4005   52.1467 H   0  0  0  0  0  0
   20.8112    1.0069   51.7904 H   0  0  0  0  0  0
   20.8130   -1.9574   54.9604 H   0  0  0  0  0  0
   23.2275   -1.5937   55.2902 H   0  0  0  0  0  0
   18.9674   -1.6313   53.7818 H   0  0  0  0  0  0
   17.5249    2.5269   50.9294 H   0  0  0  0  0  0
   17.4809   -2.7597   53.3207 H   0  0  0  0  0  0
   13.7346    0.0554   51.6640 H   0  0  0  0  0  0
   11.0999   -2.4811   51.8001 H   0  0  0  0  0  0
   12.0898   -1.2357   51.1041 H   0  0  0  0  0  0
   12.2299   -0.3197   53.6323 H   0  0  0  0  0  0
   10.9445   -1.4374   53.9492 H   0  0  0  0  0  0
    9.8699    0.7084   53.4764 H   0  0  0  0  0  0
    9.5756   -0.3411   52.1140 H   0  0  0  0  0  0
   12.3359    1.8363   53.2747 H   0  0  0  0  0  0
   10.8723    2.7795   53.1005 H   0  0  0  0  0  0
   12.8355    4.0138   52.1798 H   0  0  0  0  0  0
   13.2306    2.6720   51.1172 H   0  0  0  0  0  0
   10.0520    3.1127   49.1559 H   0  0  0  0  0  0
   11.4818    2.0970   49.2452 H   0  0  0  0  0  0
    9.2738    2.3094   51.3806 H   0  0  0  0  0  0
    9.5281    0.9573   50.2868 H   0  0  0  0  0  0
   12.9234    4.2533   49.0689 H   0  0  0  0  0  0
   11.4197    5.1727   48.9891 H   0  0  0  0  0  0
   12.6047    5.5372   50.2445 H   0  0  0  0  0  0
   15.5913   -5.8502   53.9523 H   0  0  0  0  0  0
   16.9604   -4.8275   53.5917 H   0  0  0  0  0  0
   15.8901   -4.4698   54.9746 H   0  0  0  0  0  0
   10.7488    4.2630   51.0776 H   0  0  0  0  0  0
  1  2  1  0  0  0
  1  8  2  0  0  0
  1  9  1  0  0  0
  2  3  1  0  0  0
  2  7  2  0  0  0
  3  4  2  0  0  0
  3 40  1  0  0  0
  4  5  1  0  0  0
  4 41  1  0  0  0
  5  6  2  0  0  0
  5 42  1  0  0  0
  6  7  1  0  0  0
  6 43  1  0  0  0
  7 44  1  0  0  0
  9 10  1  0  0  0
  9 45  1  0  0  0
 10 11  1  0  0  0
 10 15  2  0  0  0
 11 12  2  0  0  0
 11 46  1  0  0  0
 12 13  1  0  0  0
 12 47  1  0  0  0
 13 14  2  0  0  0
 13 16  1  0  0  0
 14 15  1  0  0  0
 14 48  1  0  0  0
 15 49  1  0  0  0
 16 20  1  0  0  0
 16 50  1  0  0  0
 17 18  1  0  0  0
 17 26  2  0  0  0
 18 19  2  0  0  0
 18 51  1  0  0  0
 19 20  1  0  0  0
 20 21  2  0  0  0
 21 22  1  0  0  0
 21 26  1  0  0  0
 22 23  2  0  0  0
 22 52  1  0  0  0
 23 24  1  0  0  0
 23 38  1  0  0  0
 24 25  2  0  0  0
 24 27  1  0  0  0
 25 26  1  0  0  0
 25 53  1  0  0  0
 27 28  1  0  0  0
 28 29  1  0  0  0
 28 54  1  0  0  0
 28 55  1  0  0  0
 29 30  1  0  0  0
 29 56  1  0  0  0
 29 57  1  0  0  0
 30 31  1  0  0  0
 30 58  1  0  0  0
 30 59  1  0  0  0
 31 32  1  0  0  0
 31 36  1  0  0  0
 32 33  1  0  0  0
 32 60  1  0  0  0
 32 61  1  0  0  0
 33 34  1  0  0  0
 33 62  1  0  0  0
 33 63  1  0  0  0
 34 35  1  0  0  0
 34 37  1  0  0  0
 34 74  1  0  0  0
 35 36  1  0  0  0
 35 64  1  0  0  0
 35 65  1  0  0  0
 36 66  1  0  0  0
 36 67  1  0  0  0
 37 68  1  0  0  0
 37 69  1  0  0  0
 37 70  1  0  0  0
 38 39  1  0  0  0
 39 71  1  0  0  0
 39 72  1  0  0  0
 39 73  1  0  0  0
M  CHG  1  34   1
M  END
> <s_m_entry_id>
435

> <s_m_entry_name>
pocket_pv.246

> <s_m_Source_Path>
/home/bortolaa/Project/GT/mario-master/docking/set505protein_struct_1_site_1_set505ligs_train

> <s_m_Source_File>
pocket_pv.maegz

> <i_m_Source_File_Index>
246

> <From>
www.bindingDB.org

> <BindingDB Reactant_set_id>
50463842

> <Ligand InChI>
InChI=1S/C30H34N6O3/c1-35-14-16-36(17-15-35)13-6-18-39-28-20-26-25(19-27(28)38-2)29(32-21-31-26)33-23-9-11-24(12-10-23)34-30(37)22-7-4-3-5-8-22/h3-5,7-12,19-21H,6,13-18H2,1-2H3,(H,34,37)(H,31,32,33)

> <Ligand InChI Key>
ODNMSCZTRWQCLL-UHFFFAOYSA-N

> <BindingDB MonomerID>
50144602

> <BindingDB Ligand Name>
CHEMBL3759127

> <Target Name Assigned by Curator or DataSource>
Epidermal growth factor receptor

> <Target Source Organism According to Curator or DataSource>
Homo sapiens

> <Ki (nM)>


> <Kd (nM)>


> <EC50 (nM)>


> <kon (M-1-s-1)>


> <koff (s-1)>


> <pH>


> <Temp C>


> <Curation/DataSource>
ChEMBL

> <Article DOI>
10.1016/j.ejmech.2015.12.032

> <PubChem AID>


> <Patent Number>


> <Authors>
Zhang, HQ; Gong, FH; Li, CG; Zhang, C; Wang, YJ; Xu, YG; Sun, LP

> <Institution>
China Pharmaceutical University

> <Link to Ligand in BindingDB>
http://www.bindingdb.org/bind/chemsearch/marvin/MolStructure.jsp?monomerid=50144602

> <Link to Ligand-Target Pair in BindingDB>
http://www.bindingdb.org/jsp/dbsearch/PrimarySearch_ki.jsp?energyterm=kJ/mole&tag=r21&monomerid=50144602&enzyme=Epidermal+growth+factor+receptor&column=ki&startPg=0&Increment=50&submit=Search

> <Ligand HET ID in PDB>


> <PDB ID(s) for Ligand-Target Complex>


> <PubChem CID>
3009555

> <PubChem SID>
85414071

> <ChEBI ID of Ligand>


> <ChEMBL ID of Ligand>
CHEMBL3759127

> <DrugBank ID of Ligand>


> <IUPHAR_GRAC ID of Ligand>


> <KEGG ID of Ligand>


> <ZINC ID of Ligand>


> <Number of Protein Chains in Target (>
1

> <BindingDB Target Chain Sequence>
MRPSGTAGAALLALLAALCPASRALEEKKVCQGTSNKLTQLGTFEDHFLSLQRMFNNCEVVLGNLEITYVQRNYDLSFLKTIQEVAGYVLIALNTVERIPLENLQIIRGNMYYENSYALAVLSNYDANKTGLKELPMRNLQEILHGAVRFSNNPALCNVESIQWRDIVSSDFLSNMSMDFQNHLGSCQKCDPSCPNGSCWGAGEENCQKLTKIICAQQCSGRCRGKSPSDCCHNQCAAGCTGPRESDCLVCRKFRDEATCKDTCPPLMLYNPTTYQMDVNPEGKYSFGATCVKKCPRNYVVTDHGSCVRACGADSYEMEEDGVRKCKKCEGPCRKVCNGIGIGEFKDSLSINATNIKHFKNCTSISGDLHILPVAFRGDSFTHTPPLDPQELDILKTVKEITGFLLIQAWPENRTDLHAFENLEIIRGRTKQHGQFSLAVVSLNITSLGLRSLKEISDGDVIISGNKNLCYANTINWKKLFGTSGQKTKIISNRGENSCKATGQVCHALCSPEGCWGPEPRDCVSCRNVSRGRECVDKCNLLEGEPREFVENSECIQCHPECLPQAMNITCTGRGPDNCIQCAHYIDGPHCVKTCPAGVMGENNTLVWKYADAGHVCHLCHPNCTYGCTGPGLEGCPTNGPKIPSIATGMVGALLLLLVVALGIGLFMRRRHIVRKRTLRRLLQERELVEPLTPSGEAPNQALLRILKETEFKKIKVLGSGAFGTVYKGLWIPEGEKVKIPVAIKELREATSPKANKEILDEAYVMASVDNPHVCRLLGICLTSTVQLITQLMPFGCLLDYVREHKDNIGSQYLLNWCVQIAKGMNYLEDRRLVHRDLAARNVLVKTPQHVKITDFGLAKLLGAEEKEYHAEGGKVPIKWMALESILHRIYTHQSDVWSYGVTVWELMTFGSKPYDGIPASEISSILEKGERLPQPPICTIDVYMIMVKCWMIDADSRPKFRELIIEFSKMARDPQRYLVIQGDERMHLPSPTDSNFYRALMDEEDMDDVVDADEYLIPQQGFFSSPSTSRTPLLSSLSATSNNSTVACIDRNGLQSCPIKEDSFLQRYSSDPTGALTEDSIDDTFLPVPEYINQSVPKRPAGSVQNPVYHNQPLNPAPSRDPHYQDPHSTAVGNPEYLNTVQPTCVNSTFDSPAHWAQKGSHQISLDNPDYQQDFFPKEAKPNGIFKGSTAENAEYLRVAPQSSEFIGA

> <PDB ID(s) of Target Chain>
1IVO,1M14,1M17,1MOX,1XKK,1Z9I,2GS2,2GS6,2ITW,2ITX,2ITY,2J5E,2J5F,2J6M,2RF9,2RGP,3B2V,3BEL,3GOP,3POZ,3QWQ,3VJO,3W2O,3W2P,3W2Q,3W2R,3W2S,3W32,3W33,4G5J,4I23,4JQ7,4JQ8,4JR3,4JRV,4KRO,4LI5,4RJ4,4RJ5,4RJ6,4RJ7,4RJ8,4TKS,4UIP,4UV7,4WKQ,4WRG,4ZAU,5C8K,5C8M,5C8N,5CAL,5CAN,5CAO,5CAP,5CAQ,5CAS,5CAU,5CAV,5EDP,5EDQ,5EDR,5EM5,5EM6,5EM7,5EM8,5FED,5GNK,5HCX,5HCY,5HCZ,5HIB,5HIC,5UGB,5WB7,5WB8,5Y25,6S89,6S8A

> <UniProt (SwissProt) Recommended Name of Target Chain>
Epidermal growth factor receptor

> <UniProt (SwissProt) Entry Name of Target Chain>
EGFR_HUMAN

> <UniProt (SwissProt) Primary ID of Target Chain>
P00533

> <UniProt (SwissProt) Secondary ID(s) of Target Chain>
O00688,O00732,P06268,Q14225,Q68GS5,Q92795,Q9BZS2,Q9GZX1,Q9H2C9,Q9H3C9,Q9UMD7,Q9UMD8,Q9UMG5

> <UniProt (SwissProt) Alternative ID(s) of Target Chain>


> <UniProt (TrEMBL) Submitted Name of Target Chain>


> <UniProt (TrEMBL) Entry Name of Target Chain>


> <UniProt (TrEMBL) Primary ID of Target Chain>


> <UniProt (TrEMBL) Secondary ID(s) of Target Chain>


> <UniProt (TrEMBL) Alternative ID(s) of Target Chain>


> <training label>
6.88606

> <i_lp_mmshare_version>
54117

> <s_epik_input>
W2NIXTFbY0hdW2NIXVtjSF1bY0hdYzFDKD1PKVtOSF1jMltjSF1bY0hdYyhbY0hdW2NIXTIpW05IXWMzbltjSF1uYyhjMzQpW2NIXWMoYyhbY0hdNClPW0NIM10pT1tDSDJdW0NIMl1bQ0gyXU41W0NIMl1bQ0gyXU4oW0NIM10pW0NIMl1bQ0gyXTU=

> <s_epik_cmdline>
J2VwaWtfcHl0aG9uJywgJy1waHQnLCAnMC4xJywgJy1waCcsICc3LjQnLCAnLXRuJywgJzgnLCAnLW1hJywgJzIwMCcsICctaW1hZScsICc8aW5maWxlLm1hZT4nLCAnLW9tYWUnLCAnPG91dGZpbGUubWFlPic=

> <r_lp_tautomer_probability>
0.999978000241998

> <r_epik_Ionization_Penalty>
  0.0669

> <r_epik_Ionization_Penalty_Charging>
  0.0659

> <r_epik_Ionization_Penalty_Neutral>
  0.0010

> <r_epik_State_Penalty>
  0.1437

> <r_epik_Charging_Adjusted_Penalty>
0.209599309145144

> <i_epik_Tot_Q>
1

> <i_epik_Tot_abs_Q>
1

> <i_f3d_flags>
0

> <s_lp_Force_Field>
OPLS_2005

> <r_lp_Energy>
50.745807

> <b_lp_Chiralities_Consistent>
1

> <s_lp_Variant>
/home/bortolaa/Project/GT/mario-master/ligands/set505ligs_train.sdf:120-1

> <s_i_glide_gridfile>
struct_1_site_1

> <i_i_glide_lignum>
141

> <i_i_glide_rotatable_bonds>
11

> <r_i_docking_score>
-6.12540997502709

> <r_i_glide_ligand_efficiency>
-0.157061794231464

> <r_i_glide_ligand_efficiency_sa>
-0.532629753207636

> <r_i_glide_ligand_efficiency_ln>
-1.31346177874815

> <r_i_glide_gscore>
-6.26910997502709

> <r_i_glide_lipo>
-3.18188327751843

> <r_i_glide_hbond>
-0.193653927797438

> <r_i_glide_metal>
0

> <r_i_glide_rewards>
-0.218549654334996

> <r_i_glide_evdw>
-46.1808776855469

> <r_i_glide_ecoul>
-6.70528030395508

> <r_i_glide_erotb>
0.739812814494386

> <r_i_glide_esite>
-0.1

> <r_i_glide_emodel>
-27.8548617153444

> <r_i_glide_energy>
-52.886157989502

> <r_i_glide_einternal>
5.78815746307373

> <i_i_glide_confnum>
320

> <i_i_glide_posenum>
35

> <r_i_glide_eff_state_penalty>
0.1437

> <IC50 (nM)>
130

> <PMID>
26826581

> <r_glide_shape_similarity>
0.524290025234222

> <s_m_subgroup_title>
505 training

> <s_m_subgroupid>
pocket_pv

> <b_m_subgroup_collapsed>
0

$$$$
BindingDB_50171909_mol_1
                    3D
 Schrodinger Suite 2021-2.
 43 44  0  0  1  0            999 V2000
   20.4477   -0.8179   53.7745 N   0  0  0  0  0  0
   21.7150   -0.9609   54.2679 C   0  0  0  0  0  0
   19.1063    2.4064   49.1830 C   0  0  0  0  0  0
   20.0159    0.1039   52.7443 C   0  0  0  0  0  0
   19.3404    1.6573   50.4488 C   0  0  0  0  0  0
   22.0134   -1.8096   55.1078 O   0  0  0  0  0  0
   20.0504    2.7027   48.4556 O   0  0  0  0  0  0
   17.8402    2.7774   48.9775 N   0  0  0  0  0  0
   20.6817    1.3100   52.4282 C   0  0  0  0  0  0
   18.8559   -0.1739   51.9812 C   0  0  0  0  0  0
   18.5158    0.5938   50.8551 C   0  0  0  0  0  0
   20.4084    2.0279   51.2630 C   0  0  0  0  0  0
   17.5744    3.5079   47.8030 O   0  0  0  0  0  0
   22.8384   -0.0575   53.7813 C   0  0  0  0  0  0
   19.4737   -1.8356   54.1737 C   0  0  0  0  0  0
   26.6263    0.3979   53.3887 C   0  0  0  0  0  0
   24.2775   -0.4533   54.0301 C   0  0  0  0  0  0
   25.1380    0.5957   53.2994 C   0  0  0  0  0  0
   27.2034   -0.8860   53.3148 C   0  0  0  0  0  0
   27.4460    1.5305   53.4960 C   0  0  0  0  0  0
   28.5947   -1.0505   53.3796 C   0  0  0  0  0  0
   28.8334    1.3683   53.5598 C   0  0  0  0  0  0
   29.4058    0.0841   53.5117 C   0  0  0  0  0  0
   17.0107    2.6093   49.5259 H   0  0  0  0  0  0
   21.4475    1.7561   53.0270 H   0  0  0  0  0  0
   18.2189   -1.0175   52.1814 H   0  0  0  0  0  0
   17.6612    0.3062   50.2578 H   0  0  0  0  0  0
   21.0115    2.8900   51.0133 H   0  0  0  0  0  0
   16.6680    3.7590   47.8956 H   0  0  0  0  0  0
   22.7543    0.0349   52.6997 H   0  0  0  0  0  0
   22.7112    0.8991   54.2804 H   0  0  0  0  0  0
   19.3503   -2.5689   53.3762 H   0  0  0  0  0  0
   19.7267   -2.4025   55.0675 H   0  0  0  0  0  0
   18.5016   -1.3834   54.3777 H   0  0  0  0  0  0
   24.5024   -0.4710   55.0970 H   0  0  0  0  0  0
   24.4525   -1.4542   53.6401 H   0  0  0  0  0  0
   24.8920    0.6095   52.2363 H   0  0  0  0  0  0
   24.8953    1.5891   53.6792 H   0  0  0  0  0  0
   26.5881   -1.7661   53.2044 H   0  0  0  0  0  0
   27.0223    2.5247   53.5312 H   0  0  0  0  0  0
   29.0334   -2.0368   53.3311 H   0  0  0  0  0  0
   29.4749    2.2338   53.6493 H   0  0  0  0  0  0
   30.4800   -0.0208   53.5658 H   0  0  0  0  0  0
  1  2  1  0  0  0
  1  4  1  0  0  0
  1 15  1  0  0  0
  2  6  2  0  0  0
  2 14  1  0  0  0
  3  5  1  0  0  0
  3  7  2  0  0  0
  3  8  1  0  0  0
  4  9  1  0  0  0
  4 10  2  0  0  0
  5 11  2  0  0  0
  5 12  1  0  0  0
  8 13  1  0  0  0
  8 24  1  0  0  0
  9 12  2  0  0  0
  9 25  1  0  0  0
 10 11  1  0  0  0
 10 26  1  0  0  0
 11 27  1  0  0  0
 12 28  1  0  0  0
 13 29  1  0  0  0
 14 17  1  0  0  0
 14 30  1  0  0  0
 14 31  1  0  0  0
 15 32  1  0  0  0
 15 33  1  0  0  0
 15 34  1  0  0  0
 16 18  1  0  0  0
 16 19  1  0  0  0
 16 20  2  0  0  0
 17 18  1  0  0  0
 17 35  1  0  0  0
 17 36  1  0  0  0
 18 37  1  0  0  0
 18 38  1  0  0  0
 19 21  2  0  0  0
 19 39  1  0  0  0
 20 22  1  0  0  0
 20 40  1  0  0  0
 21 23  1  0  0  0
 21 41  1  0  0  0
 22 23  2  0  0  0
 22 42  1  0  0  0
 23 43  1  0  0  0
M  END
> <s_m_entry_id>
436

> <s_m_entry_name>
pocket_pv.247

> <s_m_Source_Path>
/home/bortolaa/Project/GT/mario-master/docking/set505protein_struct_1_site_1_set505ligs_train

> <s_m_Source_File>
pocket_pv.maegz

> <i_m_Source_File_Index>
247

> <From>
www.bindingDB.org

> <BindingDB Reactant_set_id>
50497534

> <Ligand InChI>
InChI=1S/C19H19N3O3/c1-3-23-15-10-14-16(18-17(15)24-8-9-25-18)19(21-11-20-14)22-13-6-4-12(2)5-7-13/h4-7,10-11H,3,8-9H2,1-2H3,(H,20,21,22)

> <Ligand InChI Key>
CHBBYOIXEZCTDF-UHFFFAOYSA-N

> <BindingDB MonomerID>
50171909

> <BindingDB Ligand Name>
CHEMBL3805859::US10106508, Compound I-39

> <Target Name Assigned by Curator or DataSource>
Epidermal growth factor receptor

> <Target Source Organism According to Curator or DataSource>


> <Ki (nM)>


> <Kd (nM)>


> <EC50 (nM)>


> <kon (M-1-s-1)>


> <koff (s-1)>


> <pH>


> <Temp C>


> <Curation/DataSource>
ChEMBL

> <Article DOI>
10.1016/j.bmc.2016.01.003

> <PubChem AID>


> <Patent Number>


> <Authors>
Qin, X; Li, Z; Yang, L; Liu, P; Hu, L; Zeng, C; Pan, Z

> <Institution>
Beijing University of Technology

> <Link to Ligand in BindingDB>
http://www.bindingdb.org/bind/chemsearch/marvin/MolStructure.jsp?monomerid=50171909

> <Link to Ligand-Target Pair in BindingDB>
http://www.bindingdb.org/jsp/dbsearch/PrimarySearch_ki.jsp?energyterm=kJ/mole&tag=r21&monomerid=50171909&enzyme=Epidermal+growth+factor+receptor&column=ki&startPg=0&Increment=50&submit=Search

> <Ligand HET ID in PDB>


> <PDB ID(s) for Ligand-Target Complex>


> <PubChem CID>
122417709

> <PubChem SID>
104058085

> <ChEBI ID of Ligand>


> <ChEMBL ID of Ligand>
CHEMBL3805859

> <DrugBank ID of Ligand>


> <IUPHAR_GRAC ID of Ligand>


> <KEGG ID of Ligand>


> <ZINC ID of Ligand>
ZINC13671707

> <Number of Protein Chains in Target (>
4

> <BindingDB Target Chain Sequence>
MRANDALQVLGLLFSLARGSEVGNSQAVCPGTLNGLSVTGDAENQYQTLYKLYERCEVVMGNLEIVLTGHNADLSFLQWIREVTGYVLVAMNEFSTLPLPNLRVVRGTQVYDGKFAIFVMLNYNTNSSHALRQLRLTQLTEILSGGVYIEKNDKLCHMDTIDWRDIVRDRDAEIVVKDNGRSCPPCHEVCKGRCWGPGSEDCQTLTKTICAPQCNGHCFGPNPNQCCHDECAGGCSGPQDTDCFACRHFNDSGACVPRCPQPLVYNKLTFQLEPNPHTKYQYGGVCVASCPHNFVVDQTSCVRACPPDKMEVDKNGLKMCEPCGGLCPKACEGTGSGSRFQTVDSSNIDGFVNCTKILGNLDFLITGLNGDPWHKIPALDPEKLNVFRTVREITGYLNIQSWPPHMHNFSVFSNLTTIGGRSLYNRGFSLLIMKNLNVTSLGFRSLKEISAGRIYISANRQLCYHHSLNWTKVLRGPTEERLDIKHNRPRRDCVAEGKVCDPLCSSGGCWGPGPGQCLSCRNYSRGGVCVTHCNFLNGEPREFAHEAECFSCHPECQPMEGTATCNGSGSDTCAQCAHFRDGPHCVSSCPHGVLGAKGPIYKYPDVQNECRPCHENCTQGCKGPELQDCLGQTLVLIGKTHLTMALTVIAGLVVIFMMLGGTFLYWRGRRIQNKRAMRRYLERGESIEPLDPSEKANKVLARIFKETELRKLKVLGSGVFGTVHKGVWIPEGESIKIPVCIKVIEDKSGRQSFQAVTDHMLAIGSLDHAHIVRLLGLCPGSSLQLVTQYLPLGSLLDHVRQHRGALGPQLLLNWGVQIAKGMYYLEEHGMVHRNLAARNVLLKSPSQVQVADFGVADLLPPDDKQLLYSEAKTPIKWMALESIHFGKYTHQSDVWSYGVTVWELMTFGAEPYAGLRLAEVPDLLEKGERLAQPQICTIDVYMVMVKCWMIDENIRPTFKELANEFTRMARDPPRYLVIKRESGPGIAPGPEPHGLTNKKLEEVELEPELDLDLDLEAEEDNLATTTLGSALSLPVGTLNRPRGSQSLLSPSSGYMPMNQGNLGESCQESAVSGSSERCPRPVSLHPMPRGCLASESSEGHVTGSEAELQEKVSMCRSRSRSRSPRPRGDSAYHSQRHSLLTPVTPLSPPGLEEEDVNGYVMPDTHLKGTPSSREGTLSSVGLSSVLGTEEEDEDEEYEYMNRRRRHSPPHPPRPSSLEELGYEYMDVGSDLSASLGSTQSCPLHPVPIMPTAGTTPDEDYEYMNRQRDGGGPGGDYAAMGACPASEQGYEEMRAFQGPGHQAPHVHYARLKTLRSLEATDSAFDNPDYWHSRLFPKANAQRT

> <PDB ID(s) of Target Chain>
3KEX,4RIX,4RIY,5CUS,5O4O,5O7P,6OP9

> <UniProt (SwissProt) Recommended Name of Target Chain>
Receptor tyrosine-protein kinase erbB-3

> <UniProt (SwissProt) Entry Name of Target Chain>
ERBB3_HUMAN

> <UniProt (SwissProt) Primary ID of Target Chain>
P21860

> <UniProt (SwissProt) Secondary ID(s) of Target Chain>
A8K6L6,B4DIK7,B4DV32,E9PDT8,Q9BUD7

> <UniProt (SwissProt) Alternative ID(s) of Target Chain>


> <UniProt (TrEMBL) Submitted Name of Target Chain>


> <UniProt (TrEMBL) Entry Name of Target Chain>


> <UniProt (TrEMBL) Primary ID of Target Chain>


> <UniProt (TrEMBL) Secondary ID(s) of Target Chain>


> <UniProt (TrEMBL) Alternative ID(s) of Target Chain>


> <training label>
6.90658

> <i_lp_mmshare_version>
54117

> <s_epik_input>
W09IXVtOSF1DKD1PKWMoW2NIXVtjSF0xKVtjSF1bY0hdYzFOKFtDSDNdKUMoPU8pW0NIMl1bQ0gyXVtDSDJdYzJbY0hdW2NIXVtjSF1bY0hdW2NIXTI=

> <s_epik_cmdline>
J2VwaWtfcHl0aG9uJywgJy1waHQnLCAnMC4xJywgJy1waCcsICc3LjQnLCAnLXRuJywgJzgnLCAnLW1hJywgJzIwMCcsICctaW1hZScsICc8aW5maWxlLm1hZT4nLCAnLW9tYWUnLCAnPG91dGZpbGUubWFlPic=

> <r_epik_Ionization_Penalty>
  0.0259

> <r_epik_Ionization_Penalty_Charging>
  0.0000

> <r_epik_Ionization_Penalty_Neutral>
  0.0259

> <r_epik_State_Penalty>
  0.0211

> <r_epik_Charging_Adjusted_Penalty>
0.021137726138417

> <i_epik_Tot_Q>
0

> <i_epik_Tot_abs_Q>
0

> <i_f3d_flags>
0

> <s_lp_Force_Field>
OPLS_2005

> <r_lp_Energy>
37.299045

> <b_lp_Chiralities_Consistent>
1

> <s_lp_Variant>
BindingDB_50171909_mol_1-1

> <s_i_glide_gridfile>
struct_1_site_1

> <i_i_glide_lignum>
143

> <i_i_glide_rotatable_bonds>
9

> <r_i_docking_score>
-6.11761337526793

> <r_i_glide_ligand_efficiency>
-0.26598319022904

> <r_i_glide_ligand_efficiency_sa>
-0.756420811097361

> <r_i_glide_ligand_efficiency_ln>
-1.47929438559097

> <r_i_glide_gscore>
-6.13871337526793

> <r_i_glide_lipo>
-2.68132350006741

> <r_i_glide_hbond>
-0.241545963062405

> <r_i_glide_metal>
0

> <r_i_glide_rewards>
-2.10259153290494

> <r_i_glide_evdw>
-37.1787185668945

> <r_i_glide_ecoul>
-3.90101289749146

> <r_i_glide_erotb>
1.33144995899883

> <r_i_glide_esite>
-0.00061447526356132

> <r_i_glide_emodel>
-24.8736436024809

> <r_i_glide_energy>
-41.079731464386

> <r_i_glide_einternal>
5.90627336502075

> <i_i_glide_confnum>
86

> <i_i_glide_posenum>
283

> <r_i_glide_eff_state_penalty>
0.0211

> <IC50 (nM)>
124

> <PMID>
27234887

> <s_epik_Chemistry_Notes>
This compound has a N-S or N-O group and may undergo hydrolysis at high or low pH.

> <r_glide_shape_similarity>
0.700412273406982

> <s_m_subgroup_title>
505 training

> <s_m_subgroupid>
pocket_pv

> <b_m_subgroup_collapsed>
0

$$$$
/home/bortolaa/Project/GT/mario-master/ligands/set505ligs_train.sdf:14
                    3D
 Schrodinger Suite 2021-2.
 76 79  0  0  1  0            999 V2000
   23.6038   -0.4976   54.0510 C   0  0  0  0  0  0
   22.2808   -0.3248   53.5203 C   0  0  0  0  0  0
   21.2485   -1.0189   54.2116 C   0  0  0  0  0  0
   21.5376   -1.7833   55.2850 N   0  0  0  0  0  0
   22.8052   -1.8535   55.6834 C   0  0  0  0  0  0
   23.8375   -1.2667   55.1185 N   0  0  0  0  0  0
   19.9097   -0.9033   53.7751 C   0  0  0  0  0  0
   19.5738   -0.0987   52.6595 C   0  0  0  0  0  0
   20.5917    0.5557   51.9401 C   0  0  0  0  0  0
   21.9427    0.4195   52.3607 C   0  0  0  0  0  0
   20.1760    1.2781   50.8372 O   0  0  0  0  0  0
   21.1514    1.8290   49.9723 C   0  0  0  0  0  0
   18.2992    0.0917   52.1746 O   0  0  0  0  0  0
   17.2028   -0.5759   52.7625 C   0  0  0  0  0  0
   15.9620   -0.0377   52.0145 C   0  0  0  0  0  0
   14.6438   -0.5320   52.5135 N   0  3  0  0  0  0
   14.5004   -2.0171   52.5164 C   0  0  0  0  0  0
   14.1918    0.0794   53.7880 C   0  0  0  0  0  0
   14.5395   -2.6291   51.0996 C   0  0  0  0  0  0
   13.8193    1.5601   53.6314 C   0  0  0  0  0  0
   24.8275   -0.0626   53.5336 N   0  0  0  0  0  0
   25.1818    1.1518   52.9601 C   0  0  0  0  0  0
   24.3625    2.2906   53.0615 C   0  0  0  0  0  0
   24.6301    3.4342   52.2880 C   0  0  0  0  0  0
   25.7340    3.4492   51.4069 C   0  0  0  0  0  0
   26.6342    2.3516   51.4286 C   0  0  0  0  0  0
   26.3773    1.2152   52.2229 C   0  0  0  0  0  0
   25.8845    4.6013   50.5726 N   0  0  0  0  0  0
   26.6889    4.7957   49.5058 C   0  0  0  0  0  0
   26.6594    6.0796   49.0984 N   0  0  0  0  0  0
   27.3885    3.9288   48.9743 O   0  0  0  0  0  0
   27.5293    6.6890   48.0848 C   0  0  0  0  0  0
   26.7173    7.6559   47.1838 C   0  0  0  0  0  0
   26.2637    8.9336   47.9397 C   0  0  0  0  0  0
   27.4609    9.6512   48.6124 C   0  0  0  0  0  0
   28.2580    8.6969   49.5297 C   0  0  0  0  0  0
   28.7148    7.4241   48.7658 C   0  0  0  0  0  0
   23.0362   -2.4610   56.5449 H   0  0  0  0  0  0
   19.1502   -1.4291   54.3342 H   0  0  0  0  0  0
   22.7274    0.8746   51.7808 H   0  0  0  0  0  0
   20.6538    2.2987   49.1230 H   0  0  0  0  0  0
   21.7425    2.5929   50.4819 H   0  0  0  0  0  0
   21.8168    1.0595   49.5803 H   0  0  0  0  0  0
   17.3162   -1.6547   52.6276 H   0  0  0  0  0  0
   17.1387   -0.3676   53.8285 H   0  0  0  0  0  0
   15.9772    1.0518   52.0443 H   0  0  0  0  0  0
   16.0504   -0.2812   50.9549 H   0  0  0  0  0  0
   15.2462   -2.4790   53.1636 H   0  0  0  0  0  0
   13.5395   -2.2836   52.9560 H   0  0  0  0  0  0
   13.2971   -0.4355   54.1370 H   0  0  0  0  0  0
   14.9340   -0.0657   54.5719 H   0  0  0  0  0  0
   14.3577   -3.7033   51.1402 H   0  0  0  0  0  0
   13.7760   -2.1864   50.4634 H   0  0  0  0  0  0
   15.4992   -2.4845   50.6129 H   0  0  0  0  0  0
   13.3628    1.9454   54.5426 H   0  0  0  0  0  0
   14.6859    2.1907   53.4309 H   0  0  0  0  0  0
   13.1004    1.7056   52.8225 H   0  0  0  0  0  0
   25.6148   -0.6080   53.8517 H   0  0  0  0  0  0
   23.4879    2.2569   53.6822 H   0  0  0  0  0  0
   23.9643    4.2835   52.3470 H   0  0  0  0  0  0
   27.4934    2.3479   50.7899 H   0  0  0  0  0  0
   27.0375    0.3618   52.1758 H   0  0  0  0  0  0
   25.3777    5.4134   50.8982 H   0  0  0  0  0  0
   26.0879    6.7277   49.6239 H   0  0  0  0  0  0
   27.9326    5.8969   47.4491 H   0  0  0  0  0  0
   25.8486    7.1419   46.7679 H   0  0  0  0  0  0
   27.3353    7.9507   46.3334 H   0  0  0  0  0  0
   25.5290    8.6655   48.7013 H   0  0  0  0  0  0
   25.7617    9.6148   47.2523 H   0  0  0  0  0  0
   27.1085   10.5125   49.1824 H   0  0  0  0  0  0
   28.1239   10.0549   47.8432 H   0  0  0  0  0  0
   27.6412    8.4050   50.3821 H   0  0  0  0  0  0
   29.1266    9.2176   49.9446 H   0  0  0  0  0  0
   29.4414    7.7105   48.0047 H   0  0  0  0  0  0
   29.2374    6.7504   49.4464 H   0  0  0  0  0  0
   13.9643   -0.2022   51.8410 H   0  0  0  0  0  0
  1  2  2  0  0  0
  1  6  1  0  0  0
  1 21  1  0  0  0
  2 10  1  0  0  0
  2  3  1  0  0  0
  3  4  2  0  0  0
  3  7  1  0  0  0
  4  5  1  0  0  0
  5  6  2  0  0  0
  5 38  1  0  0  0
  7  8  2  0  0  0
  7 39  1  0  0  0
  8  9  1  0  0  0
  8 13  1  0  0  0
  9 10  2  0  0  0
  9 11  1  0  0  0
 10 40  1  0  0  0
 11 12  1  0  0  0
 12 41  1  0  0  0
 12 42  1  0  0  0
 12 43  1  0  0  0
 13 14  1  0  0  0
 14 15  1  0  0  0
 14 44  1  0  0  0
 14 45  1  0  0  0
 15 16  1  0  0  0
 15 46  1  0  0  0
 15 47  1  0  0  0
 16 17  1  0  0  0
 16 18  1  0  0  0
 16 76  1  0  0  0
 17 19  1  0  0  0
 17 48  1  0  0  0
 17 49  1  0  0  0
 18 20  1  0  0  0
 18 50  1  0  0  0
 18 51  1  0  0  0
 19 52  1  0  0  0
 19 53  1  0  0  0
 19 54  1  0  0  0
 20 55  1  0  0  0
 20 56  1  0  0  0
 20 57  1  0  0  0
 21 22  1  0  0  0
 21 58  1  0  0  0
 22 23  2  0  0  0
 22 27  1  0  0  0
 23 24  1  0  0  0
 23 59  1  0  0  0
 24 25  2  0  0  0
 24 60  1  0  0  0
 25 26  1  0  0  0
 25 28  1  0  0  0
 26 27  2  0  0  0
 26 61  1  0  0  0
 27 62  1  0  0  0
 28 29  1  0  0  0
 28 63  1  0  0  0
 29 30  1  0  0  0
 29 31  2  0  0  0
 30 32  1  0  0  0
 30 64  1  0  0  0
 32 33  1  0  0  0
 32 37  1  0  0  0
 32 65  1  0  0  0
 33 34  1  0  0  0
 33 66  1  0  0  0
 33 67  1  0  0  0
 34 35  1  0  0  0
 34 68  1  0  0  0
 34 69  1  0  0  0
 35 36  1  0  0  0
 35 70  1  0  0  0
 35 71  1  0  0  0
 36 37  1  0  0  0
 36 72  1  0  0  0
 36 73  1  0  0  0
 37 74  1  0  0  0
 37 75  1  0  0  0
M  CHG  1  16   1
M  END
> <s_m_entry_id>
437

> <s_m_entry_name>
pocket_pv.248

> <s_m_Source_Path>
/home/bortolaa/Project/GT/mario-master/docking/set505protein_struct_1_site_1_set505ligs_train

> <s_m_Source_File>
pocket_pv.maegz

> <i_m_Source_File_Index>
248

> <From>
www.bindingDB.org

> <BindingDB Reactant_set_id>
406602

> <Ligand InChI>
InChI=1S/C28H38N6O3/c1-4-34(5-2)15-16-37-26-18-24-23(17-25(26)36-3)27(30-19-29-24)31-21-11-13-22(14-12-21)33-28(35)32-20-9-7-6-8-10-20/h11-14,17-20H,4-10,15-16H2,1-3H3,(H,29,30,31)(H2,32,33,35)

> <Ligand InChI Key>
GRHPWBWINCJUFI-UHFFFAOYSA-N

> <BindingDB MonomerID>
233112

> <BindingDB Ligand Name>
N-Cyclohexyl-N&#39;-{4-[7-(2-diethylaminoethoxy)-6-methoxy-quinazolin-4-ylamino]phenyl}urea hydrochloride (7j)

> <Target Name Assigned by Curator or DataSource>
Epidermal growth factor receptor

> <Target Source Organism According to Curator or DataSource>
Homo sapiens

> <Ki (nM)>


> <IC50 (nM)>
28200

> <Kd (nM)>


> <EC50 (nM)>


> <kon (M-1-s-1)>


> <koff (s-1)>


> <Temp C>


> <Curation/DataSource>
Curated from the literature by BindingDB

> <Article DOI>
10.3109/14756360903169485

> <PubChem AID>


> <Patent Number>


> <Authors>
Garofalo, A; Goossens, L; Lemoine, A; Farce, A; Arlot, Y; Depreux, P

> <Institution>
Université Lille Nord de France

> <Link to Ligand in BindingDB>
http://www.bindingdb.org/bind/chemsearch/marvin/MolStructure.jsp?monomerid=233112

> <Link to Ligand-Target Pair in BindingDB>
http://www.bindingdb.org/jsp/dbsearch/PrimarySearch_ki.jsp?energyterm=kJ/mole&tag=r21&monomerid=233112&enzyme=Epidermal+growth+factor+receptor&column=ki&startPg=0&Increment=50&submit=Search

> <Ligand HET ID in PDB>


> <PDB ID(s) for Ligand-Target Complex>


> <PubChem CID>
129010610

> <PubChem SID>
340093206

> <ChEBI ID of Ligand>


> <ChEMBL ID of Ligand>


> <DrugBank ID of Ligand>


> <IUPHAR_GRAC ID of Ligand>


> <KEGG ID of Ligand>


> <ZINC ID of Ligand>


> <Number of Protein Chains in Target (>
1

> <BindingDB Target Chain Sequence>
MRPSGTAGAALLALLAALCPASRALEEKKVCQGTSNKLTQLGTFEDHFLSLQRMFNNCEVVLGNLEITYVQRNYDLSFLKTIQEVAGYVLIALNTVERIPLENLQIIRGNMYYENSYALAVLSNYDANKTGLKELPMRNLQEILHGAVRFSNNPALCNVESIQWRDIVSSDFLSNMSMDFQNHLGSCQKCDPSCPNGSCWGAGEENCQKLTKIICAQQCSGRCRGKSPSDCCHNQCAAGCTGPRESDCLVCRKFRDEATCKDTCPPLMLYNPTTYQMDVNPEGKYSFGATCVKKCPRNYVVTDHGSCVRACGADSYEMEEDGVRKCKKCEGPCRKVCNGIGIGEFKDSLSINATNIKHFKNCTSISGDLHILPVAFRGDSFTHTPPLDPQELDILKTVKEITGFLLIQAWPENRTDLHAFENLEIIRGRTKQHGQFSLAVVSLNITSLGLRSLKEISDGDVIISGNKNLCYANTINWKKLFGTSGQKTKIISNRGENSCKATGQVCHALCSPEGCWGPEPRDCVSCRNVSRGRECVDKCNLLEGEPREFVENSECIQCHPECLPQAMNITCTGRGPDNCIQCAHYIDGPHCVKTCPAGVMGENNTLVWKYADAGHVCHLCHPNCTYGCTGPGLEGCPTNGPKIPSIATGMVGALLLLLVVALGIGLFMRRRHIVRKRTLRRLLQERELVEPLTPSGEAPNQALLRILKETEFKKIKVLGSGAFGTVYKGLWIPEGEKVKIPVAIKELREATSPKANKEILDEAYVMASVDNPHVCRLLGICLTSTVQLITQLMPFGCLLDYVREHKDNIGSQYLLNWCVQIAKGMNYLEDRRLVHRDLAARNVLVKTPQHVKITDFGLAKLLGAEEKEYHAEGGKVPIKWMALESILHRIYTHQSDVWSYGVTVWELMTFGSKPYDGIPASEISSILEKGERLPQPPICTIDVYMIMVKCWMIDADSRPKFRELIIEFSKMARDPQRYLVIQGDERMHLPSPTDSNFYRALMDEEDMDDVVDADEYLIPQQGFFSSPSTSRTPLLSSLSATSNNSTVACIDRNGLQSCPIKEDSFLQRYSSDPTGALTEDSIDDTFLPVPEYINQSVPKRPAGSVQNPVYHNQPLNPAPSRDPHYQDPHSTAVGNPEYLNTVQPTCVNSTFDSPAHWAQKGSHQISLDNPDYQQDFFPKEAKPNGIFKGSTAENAEYLRVAPQSSEFIGA

> <PDB ID(s) of Target Chain>
1IVO,1M14,1M17,1MOX,1XKK,1Z9I,2GS2,2GS6,2ITW,2ITX,2ITY,2J5E,2J5F,2J6M,2RF9,2RGP,3B2V,3BEL,3GOP,3POZ,3QWQ,3VJO,3W2O,3W2P,3W2Q,3W2R,3W2S,3W32,3W33,4G5J,4I23,4JQ7,4JQ8,4JR3,4JRV,4KRO,4LI5,4RJ4,4RJ5,4RJ6,4RJ7,4RJ8,4TKS,4UIP,4UV7,4WKQ,4WRG,4ZAU,5C8K,5C8M,5C8N,5CAL,5CAN,5CAO,5CAP,5CAQ,5CAS,5CAU,5CAV,5EDP,5EDQ,5EDR,5EM5,5EM6,5EM7,5EM8,5FED,5GNK,5HCX,5HCY,5HCZ,5HIB,5HIC,5UGB,5WB7,5WB8,5Y25,6S89,6S8A

> <UniProt (SwissProt) Recommended Name of Target Chain>
Epidermal growth factor receptor

> <UniProt (SwissProt) Entry Name of Target Chain>
EGFR_HUMAN

> <UniProt (SwissProt) Primary ID of Target Chain>
P00533

> <UniProt (SwissProt) Secondary ID(s) of Target Chain>
O00688,O00732,P06268,Q14225,Q68GS5,Q92795,Q9BZS2,Q9GZX1,Q9H2C9,Q9H3C9,Q9UMD7,Q9UMD8,Q9UMG5

> <UniProt (SwissProt) Alternative ID(s) of Target Chain>


> <UniProt (TrEMBL) Submitted Name of Target Chain>


> <UniProt (TrEMBL) Entry Name of Target Chain>


> <UniProt (TrEMBL) Primary ID of Target Chain>


> <UniProt (TrEMBL) Secondary ID(s) of Target Chain>


> <UniProt (TrEMBL) Alternative ID(s) of Target Chain>


> <training label>
4.54975

> <i_lp_mmshare_version>
54117

> <s_epik_input>
W0NIM11bQ0gyXU4oW0NIMl1bQ0gzXSlbQ0gyXVtDSDJdT2MoYyhbY0hdMSlPW0NIM10pW2NIXWMoYzEyKW5bY0hdbmMyW05IXWMzW2NIXVtjSF1jKFtjSF1bY0hdMylbTkhdQyg9TylbTkhdW0NIXTRbQ0gyXVtDSDJdW0NIMl1bQ0gyXVtDSDJdNA==

> <s_epik_cmdline>
J2VwaWtfcHl0aG9uJywgJy1waHQnLCAnMC4xJywgJy1waCcsICc3LjQnLCAnLXRuJywgJzgnLCAnLW1hJywgJzIwMCcsICctaW1hZScsICc8aW5maWxlLm1hZT4nLCAnLW9tYWUnLCAnPG91dGZpbGUubWFlPic=

> <r_lp_tautomer_probability>
0.999978000241998

> <r_epik_Ionization_Penalty>
  0.0610

> <r_epik_Ionization_Penalty_Charging>
  0.0604

> <r_epik_Ionization_Penalty_Neutral>
  0.0006

> <r_epik_State_Penalty>
  0.0524

> <r_epik_Charging_Adjusted_Penalty>
0.112841773912698

> <i_epik_Tot_Q>
1

> <i_epik_Tot_abs_Q>
1

> <i_f3d_flags>
0

> <s_lp_Force_Field>
OPLS_2005

> <r_lp_Energy>
43.289431

> <b_lp_Chiralities_Consistent>
1

> <s_lp_Variant>
/home/bortolaa/Project/GT/mario-master/ligands/set505ligs_train.sdf:14-1

> <s_i_glide_gridfile>
struct_1_site_1

> <i_i_glide_lignum>
14

> <i_i_glide_rotatable_bonds>
13

> <r_i_docking_score>
-6.06989262516588

> <r_i_glide_ligand_efficiency>
-0.16405115203151

> <r_i_glide_ligand_efficiency_sa>
-0.546654832929115

> <r_i_glide_ligand_efficiency_ln>
-1.3164174119259

> <r_i_glide_gscore>
-6.12229262516588

> <r_i_glide_lipo>
-2.33872823392535

> <r_i_glide_hbond>
-0.32

> <r_i_glide_metal>
0

> <r_i_glide_rewards>
-0.925344807274433

> <r_i_glide_evdw>
-40.6913375854492

> <r_i_glide_ecoul>
-6.65597152709961

> <r_i_glide_erotb>
0.71481618175118

> <r_i_glide_esite>
-0.220073157379871

> <r_i_glide_emodel>
-16.3156846126988

> <r_i_glide_energy>
-47.3473091125488

> <r_i_glide_einternal>
8.98437118530273

> <i_i_glide_confnum>
451

> <i_i_glide_posenum>
263

> <r_i_glide_eff_state_penalty>
0.0524

> <PMID>
20222760

> <r_glide_shape_similarity>
0.524245977401733

> <pH>
7.5

> <s_m_subgroup_title>
505 training

> <s_m_subgroupid>
pocket_pv

> <b_m_subgroup_collapsed>
0

$$$$
/home/bortolaa/Project/GT/mario-master/ligands/set505ligs_train.sdf:206
                    3D
 Schrodinger Suite 2021-2.
 79 84  0  0  1  0            999 V2000
   12.0232    1.0775   52.0682 C   0  0  0  0  0  0
   12.3041    0.4415   53.4569 C   0  0  1  0  0  0
   12.4600    0.0887   50.9550 C   0  0  2  0  0  0
   11.4972   -0.8821   53.6059 C   0  0  0  0  0  0
   11.6453   -1.2301   51.0980 C   0  0  0  0  0  0
   11.9116   -1.8739   52.4877 C   0  0  1  0  0  0
   13.9708   -0.2370   51.1022 C   0  0  0  0  0  0
   14.2643   -0.8844   52.4947 C   0  0  0  0  0  0
   13.8138    0.1170   53.6021 C   0  0  0  0  0  0
   13.4155   -2.2048   52.6086 C   0  0  0  0  0  0
   15.7707   -1.1983   52.6432 C   0  0  0  0  0  0
   18.8086    0.5789   51.6725 C   0  0  0  0  0  0
   20.1967    0.6511   51.8788 C   0  0  0  0  0  0
   20.7924   -0.0100   52.9640 C   0  0  0  0  0  0
   20.0157   -0.8042   53.8399 C   0  0  0  0  0  0
   18.6207   -0.8706   53.6645 C   0  0  0  0  0  0
   18.0103   -0.1824   52.5675 C   0  0  0  0  0  0
   22.1534    0.2468   53.0792 N   0  0  0  0  0  0
   25.0803   -1.2645   55.5333 N   0  0  0  0  0  0
   23.8102   -1.6655   55.5648 C   0  0  0  0  0  0
   22.8268   -1.2256   54.8002 N   0  0  0  0  0  0
   23.1388   -0.2599   53.9170 C   0  0  0  0  0  0
   24.4488    0.2521   53.7926 C   0  0  0  0  0  0
   24.8035    1.2781   52.8928 C   0  0  0  0  0  0
   26.1560    1.6711   52.7401 C   0  0  0  0  0  0
   27.1493    1.0431   53.5206 C   0  0  0  0  0  0
   26.7605    0.0900   54.4925 C   0  0  0  0  0  0
   25.4256   -0.3213   54.6314 C   0  0  0  0  0  0
   26.5728    2.6283   51.8361 O   0  0  0  0  0  0
   25.5846    3.2315   50.9930 C   0  0  0  0  0  0
   26.2072    4.2510   50.0307 C   0  0  0  0  0  0
   28.4586    1.3812   53.2586 O   0  0  0  0  0  0
   29.4910    0.7453   54.0083 C   0  0  0  0  0  0
   16.5982   -0.1713   52.4204 N   0  0  0  0  0  0
   27.1254    3.6067   49.1622 O   0  0  0  0  0  0
   27.8848    4.5429   48.4042 C   0  0  0  0  0  0
   29.8835   -0.6568   53.4874 C   0  0  0  0  0  0
   28.7428   -1.4543   53.2068 O   0  0  0  0  0  0
   28.9944   -2.8517   53.1699 C   0  0  0  0  0  0
   18.2743    1.3453   50.5340 C   0  0  0  0  0  0
   17.8730    1.9517   49.6302 N   0  0  0  0  0  0
   16.1617   -2.3372   52.9070 O   0  0  0  0  0  0
   10.9605    1.3168   51.9691 H   0  0  0  0  0  0
   12.5786    2.0159   51.9612 H   0  0  0  0  0  0
   12.0107    1.1396   54.2481 H   0  0  0  0  0  0
   12.2697    0.5390   49.9776 H   0  0  0  0  0  0
   10.4319   -0.6720   53.5431 H   0  0  0  0  0  0
   11.6751   -1.3216   54.5878 H   0  0  0  0  0  0
   11.9218   -1.9287   50.3049 H   0  0  0  0  0  0
   10.5840   -1.0254   50.9630 H   0  0  0  0  0  0
   11.3392   -2.8002   52.5822 H   0  0  0  0  0  0
   14.2828   -0.9000   50.2914 H   0  0  0  0  0  0
   14.5282    0.6948   50.9699 H   0  0  0  0  0  0
   14.3852    1.0439   53.5597 H   0  0  0  0  0  0
   13.9946   -0.3020   54.5838 H   0  0  0  0  0  0
   13.6122   -2.7817   53.5172 H   0  0  0  0  0  0
   13.7002   -2.8734   51.7928 H   0  0  0  0  0  0
   20.7925    1.2460   51.2023 H   0  0  0  0  0  0
   20.4278   -1.3248   54.6846 H   0  0  0  0  0  0
   18.0335   -1.4254   54.3676 H   0  0  0  0  0  0
   22.4958    0.9353   52.4353 H   0  0  0  0  0  0
   23.5524   -2.4677   56.2258 H   0  0  0  0  0  0
   24.0350    1.7273   52.2863 H   0  0  0  0  0  0
   27.4818   -0.4096   55.1190 H   0  0  0  0  0  0
   25.0643    2.4664   50.4062 H   0  0  0  0  0  0
   24.8483    3.7454   51.6048 H   0  0  0  0  0  0
   25.4295    4.7281   49.4333 H   0  0  0  0  0  0
   26.6954    5.0420   50.5873 H   0  0  0  0  0  0
   30.3593    1.3813   53.9400 H   0  0  0  0  0  0
   29.2607    0.7327   55.0677 H   0  0  0  0  0  0
   16.1841    0.6851   52.0660 H   0  0  0  0  0  0
   28.5823    4.0088   47.7637 H   0  0  0  0  0  0
   27.2509    5.1621   47.7735 H   0  0  0  0  0  0
   28.4672    5.1891   49.0524 H   0  0  0  0  0  0
   30.5062   -0.5776   52.5997 H   0  0  0  0  0  0
   30.4925   -1.1464   54.2453 H   0  0  0  0  0  0
   28.1749   -3.3482   52.6569 H   0  0  0  0  0  0
   29.8854   -3.0884   52.6028 H   0  0  0  0  0  0
   29.0564   -3.2615   54.1714 H   0  0  0  0  0  0
  1  2  1  0  0  0
  1  3  1  0  0  0
  1 43  1  0  0  0
  1 44  1  0  0  0
  2  4  1  0  0  0
  2  9  1  0  0  0
  2 45  1  0  0  0
  3  5  1  0  0  0
  3  7  1  0  0  0
  3 46  1  0  0  0
  4  6  1  0  0  0
  4 47  1  0  0  0
  4 48  1  0  0  0
  5  6  1  0  0  0
  5 49  1  0  0  0
  5 50  1  0  0  0
  6 10  1  0  0  0
  6 51  1  0  0  0
  7  8  1  0  0  0
  7 52  1  0  0  0
  7 53  1  0  0  0
  8 10  1  0  0  0
  8  9  1  0  0  0
  8 11  1  0  0  0
  9 54  1  0  0  0
  9 55  1  0  0  0
 10 56  1  0  0  0
 10 57  1  0  0  0
 11 34  1  0  0  0
 11 42  2  0  0  0
 12 13  1  0  0  0
 12 17  2  0  0  0
 12 40  1  0  0  0
 13 14  2  0  0  0
 13 58  1  0  0  0
 14 15  1  0  0  0
 14 18  1  0  0  0
 15 16  2  0  0  0
 15 59  1  0  0  0
 16 17  1  0  0  0
 16 60  1  0  0  0
 17 34  1  0  0  0
 18 22  1  0  0  0
 18 61  1  0  0  0
 19 20  1  0  0  0
 19 28  2  0  0  0
 20 21  2  0  0  0
 20 62  1  0  0  0
 21 22  1  0  0  0
 22 23  2  0  0  0
 23 24  1  0  0  0
 23 28  1  0  0  0
 24 25  2  0  0  0
 24 63  1  0  0  0
 25 26  1  0  0  0
 25 29  1  0  0  0
 26 27  2  0  0  0
 26 32  1  0  0  0
 27 28  1  0  0  0
 27 64  1  0  0  0
 29 30  1  0  0  0
 30 31  1  0  0  0
 30 65  1  0  0  0
 30 66  1  0  0  0
 31 35  1  0  0  0
 31 67  1  0  0  0
 31 68  1  0  0  0
 32 33  1  0  0  0
 33 37  1  0  0  0
 33 69  1  0  0  0
 33 70  1  0  0  0
 34 71  1  0  0  0
 35 36  1  0  0  0
 36 72  1  0  0  0
 36 73  1  0  0  0
 36 74  1  0  0  0
 37 38  1  0  0  0
 37 75  1  0  0  0
 37 76  1  0  0  0
 38 39  1  0  0  0
 39 77  1  0  0  0
 39 78  1  0  0  0
 39 79  1  0  0  0
 40 41  3  0  0  0
M  END
> <s_m_entry_id>
438

> <s_m_entry_name>
pocket_pv.249

> <s_m_Source_Path>
/home/bortolaa/Project/GT/mario-master/docking/set505protein_struct_1_site_1_set505ligs_train

> <s_m_Source_File>
pocket_pv.maegz

> <i_m_Source_File_Index>
249

> <From>
www.bindingDB.org

> <BindingDB Reactant_set_id>
50467778

> <Ligand InChI>
InChI=1S/C32H37N5O5/c1-39-5-7-41-28-13-25-27(14-29(28)42-8-6-40-2)34-19-35-30(25)36-24-3-4-26(23(12-24)18-33)37-31(38)32-15-20-9-21(16-32)11-22(10-20)17-32/h3-4,12-14,19-22H,5-11,15-17H2,1-2H3,(H,37,38)(H,34,35,36)

> <Ligand InChI Key>
YYNURGNEOVXFOP-UHFFFAOYSA-N

> <BindingDB MonomerID>
50146993

> <BindingDB Ligand Name>
CHEMBL3763796

> <Target Name Assigned by Curator or DataSource>
Epidermal growth factor receptor

> <Target Source Organism According to Curator or DataSource>


> <Ki (nM)>


> <Kd (nM)>


> <EC50 (nM)>


> <kon (M-1-s-1)>


> <koff (s-1)>


> <pH>


> <Temp C>


> <Curation/DataSource>
ChEMBL

> <Article DOI>
10.1016/j.ejmech.2016.01.045

> <PubChem AID>


> <Patent Number>


> <Authors>
Yu, H; Li, Y; Ge, Y; Song, Z; Wang, C; Huang, S; Jin, Y; Han, X; Zhen, Y; Liu, K; Zhou, Y; Ma, X

> <Institution>
Dalian Medical University

> <Link to Ligand in BindingDB>
http://www.bindingdb.org/bind/chemsearch/marvin/MolStructure.jsp?monomerid=50146993

> <Link to Ligand-Target Pair in BindingDB>
http://www.bindingdb.org/jsp/dbsearch/PrimarySearch_ki.jsp?energyterm=kJ/mole&tag=r21&monomerid=50146993&enzyme=Epidermal+growth+factor+receptor&column=ki&startPg=0&Increment=50&submit=Search

> <Ligand HET ID in PDB>


> <PDB ID(s) for Ligand-Target Complex>


> <PubChem CID>
44330576

> <PubChem SID>
85455079

> <ChEBI ID of Ligand>


> <ChEMBL ID of Ligand>
CHEMBL3763796

> <DrugBank ID of Ligand>


> <IUPHAR_GRAC ID of Ligand>


> <KEGG ID of Ligand>


> <ZINC ID of Ligand>


> <Number of Protein Chains in Target (>
4

> <BindingDB Target Chain Sequence>
MRANDALQVLGLLFSLARGSEVGNSQAVCPGTLNGLSVTGDAENQYQTLYKLYERCEVVMGNLEIVLTGHNADLSFLQWIREVTGYVLVAMNEFSTLPLPNLRVVRGTQVYDGKFAIFVMLNYNTNSSHALRQLRLTQLTEILSGGVYIEKNDKLCHMDTIDWRDIVRDRDAEIVVKDNGRSCPPCHEVCKGRCWGPGSEDCQTLTKTICAPQCNGHCFGPNPNQCCHDECAGGCSGPQDTDCFACRHFNDSGACVPRCPQPLVYNKLTFQLEPNPHTKYQYGGVCVASCPHNFVVDQTSCVRACPPDKMEVDKNGLKMCEPCGGLCPKACEGTGSGSRFQTVDSSNIDGFVNCTKILGNLDFLITGLNGDPWHKIPALDPEKLNVFRTVREITGYLNIQSWPPHMHNFSVFSNLTTIGGRSLYNRGFSLLIMKNLNVTSLGFRSLKEISAGRIYISANRQLCYHHSLNWTKVLRGPTEERLDIKHNRPRRDCVAEGKVCDPLCSSGGCWGPGPGQCLSCRNYSRGGVCVTHCNFLNGEPREFAHEAECFSCHPECQPMEGTATCNGSGSDTCAQCAHFRDGPHCVSSCPHGVLGAKGPIYKYPDVQNECRPCHENCTQGCKGPELQDCLGQTLVLIGKTHLTMALTVIAGLVVIFMMLGGTFLYWRGRRIQNKRAMRRYLERGESIEPLDPSEKANKVLARIFKETELRKLKVLGSGVFGTVHKGVWIPEGESIKIPVCIKVIEDKSGRQSFQAVTDHMLAIGSLDHAHIVRLLGLCPGSSLQLVTQYLPLGSLLDHVRQHRGALGPQLLLNWGVQIAKGMYYLEEHGMVHRNLAARNVLLKSPSQVQVADFGVADLLPPDDKQLLYSEAKTPIKWMALESIHFGKYTHQSDVWSYGVTVWELMTFGAEPYAGLRLAEVPDLLEKGERLAQPQICTIDVYMVMVKCWMIDENIRPTFKELANEFTRMARDPPRYLVIKRESGPGIAPGPEPHGLTNKKLEEVELEPELDLDLDLEAEEDNLATTTLGSALSLPVGTLNRPRGSQSLLSPSSGYMPMNQGNLGESCQESAVSGSSERCPRPVSLHPMPRGCLASESSEGHVTGSEAELQEKVSMCRSRSRSRSPRPRGDSAYHSQRHSLLTPVTPLSPPGLEEEDVNGYVMPDTHLKGTPSSREGTLSSVGLSSVLGTEEEDEDEEYEYMNRRRRHSPPHPPRPSSLEELGYEYMDVGSDLSASLGSTQSCPLHPVPIMPTAGTTPDEDYEYMNRQRDGGGPGGDYAAMGACPASEQGYEEMRAFQGPGHQAPHVHYARLKTLRSLEATDSAFDNPDYWHSRLFPKANAQRT

> <PDB ID(s) of Target Chain>
3KEX,4RIX,4RIY,5CUS,5O4O,5O7P,6OP9

> <UniProt (SwissProt) Recommended Name of Target Chain>
Receptor tyrosine-protein kinase erbB-3

> <UniProt (SwissProt) Entry Name of Target Chain>
ERBB3_HUMAN

> <UniProt (SwissProt) Primary ID of Target Chain>
P21860

> <UniProt (SwissProt) Secondary ID(s) of Target Chain>
A8K6L6,B4DIK7,B4DV32,E9PDT8,Q9BUD7

> <UniProt (SwissProt) Alternative ID(s) of Target Chain>


> <UniProt (TrEMBL) Submitted Name of Target Chain>


> <UniProt (TrEMBL) Entry Name of Target Chain>


> <UniProt (TrEMBL) Primary ID of Target Chain>


> <UniProt (TrEMBL) Secondary ID(s) of Target Chain>


> <UniProt (TrEMBL) Alternative ID(s) of Target Chain>


> <training label>
8

> <i_lp_mmshare_version>
54117

> <s_epik_input>
W0NIMl0xW0NAQEhdKFtDSDJdMilbQ0gyXVtDQEBIXShbQ0gyXTMpW0NIMl1bQ0BIXTFbQ0gyXUMyM0MoPU8pW05IXWM0W2NIXVtjSF1jKFtjSF1jNEMjTilbTkhdYzVuW2NIXW5jKGM1NilbY0hdYyhPW0NIMl1bQ0gyXU9bQ0gzXSljKFtjSF02KU9bQ0gyXVtDSDJdT1tDSDNd

> <s_epik_cmdline>
J2VwaWtfcHl0aG9uJywgJy1waHQnLCAnMC4xJywgJy1waCcsICc3LjQnLCAnLXRuJywgJzgnLCAnLW1hJywgJzIwMCcsICctaW1hZScsICc8aW5maWxlLm1hZT4nLCAnLW9tYWUnLCAnPG91dGZpbGUubWFlPic=

> <r_lp_tautomer_probability>
1

> <r_epik_Ionization_Penalty>
  0.0006

> <r_epik_Ionization_Penalty_Charging>
  0.0000

> <r_epik_Ionization_Penalty_Neutral>
  0.0006

> <r_epik_State_Penalty>
  0.0000

> <r_epik_Charging_Adjusted_Penalty>
0

> <i_epik_Tot_Q>
0

> <i_epik_Tot_abs_Q>
0

> <i_f3d_flags>
0

> <s_lp_Force_Field>
OPLS_2005

> <r_lp_Energy>
63.469535

> <b_lp_Chiralities_Consistent>
1

> <s_lp_Variant>
/home/bortolaa/Project/GT/mario-master/ligands/set505ligs_train.sdf:206-1

> <s_i_glide_gridfile>
struct_1_site_1

> <i_i_glide_lignum>
231

> <i_i_glide_rotatable_bonds>
13

> <r_i_docking_score>
-6.00947589240578

> <r_i_glide_ligand_efficiency>
-0.143082759342995

> <r_i_glide_ligand_efficiency_sa>
-0.497359483280471

> <r_i_glide_ligand_efficiency_ln>
-1.26844553896589

> <r_i_glide_gscore>
-6.00947589240578

> <r_i_glide_lipo>
-2.8700131600677

> <r_i_glide_hbond>
-0.0652266019980164

> <r_i_glide_metal>
0

> <r_i_glide_rewards>
-0.449298158443051

> <r_i_glide_evdw>
-54.4095993041992

> <r_i_glide_ecoul>
-3.39998650550842

> <r_i_glide_erotb>
0.610421792858249

> <r_i_glide_esite>
-0.00488182371904223

> <r_i_glide_emodel>
-28.7370020016425

> <r_i_glide_energy>
-57.8095858097076

> <r_i_glide_einternal>
10.6799116134644

> <i_i_glide_confnum>
268

> <i_i_glide_posenum>
92

> <r_i_glide_eff_state_penalty>
0

> <IC50 (nM)>
10

> <PMID>
26829280

> <r_glide_shape_similarity>
0.549265205860138

> <s_m_subgroup_title>
505 training

> <s_m_subgroupid>
pocket_pv

> <b_m_subgroup_collapsed>
0

$$$$
BindingDB_50380457_mol_1
                    3D
 Schrodinger Suite 2021-2.
 44 46  0  0  1  0            999 V2000
   26.2597    1.7074   52.7216 C   0  0  0  0  0  0
   27.2260    0.9767   53.4204 C   0  0  0  0  0  0
   26.8147   -0.0689   54.2612 C   0  0  0  0  0  0
   24.8934    1.3582   52.8253 C   0  0  0  0  0  0
   26.7274    2.7354   51.9413 O   0  0  0  0  0  0
   25.7820    3.6338   51.3846 C   0  0  0  0  0  0
   28.5356    1.3389   53.2495 O   0  0  0  0  0  0
   29.4640    0.8451   54.1944 C   0  0  0  0  0  0
   24.4914    0.3162   53.6802 C   0  0  0  0  0  0
   25.4553   -0.3613   54.4514 C   0  0  0  0  0  0
   25.0795   -1.2721   55.3650 N   0  0  0  0  0  0
   23.7912   -1.5705   55.4577 C   0  0  0  0  0  0
   22.8196   -1.0517   54.7320 N   0  0  0  0  0  0
   23.1528   -0.1021   53.8463 C   0  0  0  0  0  0
   22.1464    0.4878   53.0812 N   0  0  0  0  0  0
   20.8084    0.1364   52.8950 C   0  0  0  0  0  0
   20.1425   -0.8700   53.6156 C   0  0  0  0  0  0
   18.8095   -1.1602   53.3427 C   0  0  0  0  0  0
   18.1014   -0.4158   52.3902 C   0  0  0  0  0  0
   18.7543    0.5912   51.6603 C   0  0  0  0  0  0
   20.1075    0.8600   51.9148 C   0  0  0  0  0  0
   16.7483   -0.7336   52.2009 N   0  0  0  0  0  0
   15.7342    0.1871   52.2595 C   0  0  0  0  0  0
   14.7200   -0.3857   52.8875 O   0  0  0  0  0  0
   15.7539    1.3361   51.8308 O   0  0  0  0  0  0
   13.5887    0.3833   53.2303 C   0  0  0  0  0  0
   18.0502   -2.4662   54.1733 Cl  0  0  0  0  0  0
   27.5342   -0.6517   54.8057 H   0  0  0  0  0  0
   24.1501    1.8888   52.2498 H   0  0  0  0  0  0
   26.3036    4.4733   50.9235 H   0  0  0  0  0  0
   25.1859    3.1494   50.6092 H   0  0  0  0  0  0
   25.1209    4.0409   52.1481 H   0  0  0  0  0  0
   30.3836    1.4225   54.1629 H   0  0  0  0  0  0
   29.0839    0.9696   55.2110 H   0  0  0  0  0  0
   29.6925   -0.2090   54.0016 H   0  0  0  0  0  0
   23.5194   -2.3344   56.1734 H   0  0  0  0  0  0
   22.4766    1.2141   52.4719 H   0  0  0  0  0  0
   20.5864   -1.4826   54.3755 H   0  0  0  0  0  0
   18.2297    1.1550   50.9028 H   0  0  0  0  0  0
   20.5997    1.6419   51.3485 H   0  0  0  0  0  0
   16.4631   -1.6121   52.5934 H   0  0  0  0  0  0
   12.8541   -0.2449   53.7339 H   0  0  0  0  0  0
   13.1263    0.8091   52.3387 H   0  0  0  0  0  0
   13.8601    1.1980   53.9081 H   0  0  0  0  0  0
  1  2  2  0  0  0
  1  4  1  0  0  0
  1  5  1  0  0  0
  2  3  1  0  0  0
  2  7  1  0  0  0
  3 10  2  0  0  0
  3 28  1  0  0  0
  4  9  2  0  0  0
  4 29  1  0  0  0
  5  6  1  0  0  0
  6 30  1  0  0  0
  6 31  1  0  0  0
  6 32  1  0  0  0
  7  8  1  0  0  0
  8 33  1  0  0  0
  8 34  1  0  0  0
  8 35  1  0  0  0
  9 10  1  0  0  0
  9 14  1  0  0  0
 10 11  1  0  0  0
 11 12  2  0  0  0
 12 13  1  0  0  0
 12 36  1  0  0  0
 13 14  2  0  0  0
 14 15  1  0  0  0
 15 16  1  0  0  0
 15 37  1  0  0  0
 16 17  2  0  0  0
 16 21  1  0  0  0
 17 18  1  0  0  0
 17 38  1  0  0  0
 18 19  2  0  0  0
 18 27  1  0  0  0
 19 20  1  0  0  0
 19 22  1  0  0  0
 20 21  2  0  0  0
 20 39  1  0  0  0
 21 40  1  0  0  0
 22 23  1  0  0  0
 22 41  1  0  0  0
 23 24  1  0  0  0
 23 25  2  0  0  0
 24 26  1  0  0  0
 26 42  1  0  0  0
 26 43  1  0  0  0
 26 44  1  0  0  0
M  END
> <s_m_entry_id>
439

> <s_m_entry_name>
pocket_pv.250

> <s_m_Source_Path>
/home/bortolaa/Project/GT/mario-master/docking/set505protein_struct_1_site_1_set505ligs_train

> <s_m_Source_File>
pocket_pv.maegz

> <i_m_Source_File_Index>
250

> <From>
www.bindingDB.org

> <BindingDB Reactant_set_id>
50927740

> <Ligand InChI>
InChI=1S/C18H17ClN4O4/c1-25-15-7-11-14(8-16(15)26-2)20-9-21-17(11)22-10-4-5-13(12(19)6-10)23-18(24)27-3/h4-9H,1-3H3,(H,23,24)(H,20,21,22)

> <Ligand InChI Key>
TYIAEQRPJACAIN-UHFFFAOYSA-N

> <BindingDB MonomerID>
50380457

> <BindingDB Ligand Name>
CHEMBL2018751

> <Target Name Assigned by Curator or DataSource>
Epidermal growth factor receptor

> <Target Source Organism According to Curator or DataSource>
Homo sapiens

> <Ki (nM)>


> <IC50 (nM)>
6150

> <Kd (nM)>


> <EC50 (nM)>


> <kon (M-1-s-1)>


> <koff (s-1)>


> <pH>


> <Temp C>


> <Curation/DataSource>
ChEMBL

> <Article DOI>
10.1021/jm2013453

> <PubChem AID>


> <Patent Number>


> <Authors>
Garofalo, A; Farce, A; Ravez, S; Lemoine, A; Six, P; Chavatte, P; Goossens, L; Depreux, P

> <Institution>
Univ. Lille Nord de France

> <Link to Ligand in BindingDB>
http://www.bindingdb.org/bind/chemsearch/marvin/MolStructure.jsp?monomerid=50380457

> <Link to Ligand-Target Pair in BindingDB>
http://www.bindingdb.org/jsp/dbsearch/PrimarySearch_ki.jsp?energyterm=kJ/mole&tag=r21&monomerid=50380457&enzyme=Epidermal+growth+factor+receptor&column=ki&startPg=0&Increment=50&submit=Search

> <Ligand HET ID in PDB>


> <PDB ID(s) for Ligand-Target Complex>


> <PubChem CID>
56954005

> <PubChem SID>
160859540

> <ChEBI ID of Ligand>


> <ChEMBL ID of Ligand>
CHEMBL2018751

> <DrugBank ID of Ligand>


> <IUPHAR_GRAC ID of Ligand>


> <KEGG ID of Ligand>


> <ZINC ID of Ligand>
ZINC84634846

> <Number of Protein Chains in Target (>
1

> <BindingDB Target Chain Sequence>
MRPSGTAGAALLALLAALCPASRALEEKKVCQGTSNKLTQLGTFEDHFLSLQRMFNNCEVVLGNLEITYVQRNYDLSFLKTIQEVAGYVLIALNTVERIPLENLQIIRGNMYYENSYALAVLSNYDANKTGLKELPMRNLQEILHGAVRFSNNPALCNVESIQWRDIVSSDFLSNMSMDFQNHLGSCQKCDPSCPNGSCWGAGEENCQKLTKIICAQQCSGRCRGKSPSDCCHNQCAAGCTGPRESDCLVCRKFRDEATCKDTCPPLMLYNPTTYQMDVNPEGKYSFGATCVKKCPRNYVVTDHGSCVRACGADSYEMEEDGVRKCKKCEGPCRKVCNGIGIGEFKDSLSINATNIKHFKNCTSISGDLHILPVAFRGDSFTHTPPLDPQELDILKTVKEITGFLLIQAWPENRTDLHAFENLEIIRGRTKQHGQFSLAVVSLNITSLGLRSLKEISDGDVIISGNKNLCYANTINWKKLFGTSGQKTKIISNRGENSCKATGQVCHALCSPEGCWGPEPRDCVSCRNVSRGRECVDKCNLLEGEPREFVENSECIQCHPECLPQAMNITCTGRGPDNCIQCAHYIDGPHCVKTCPAGVMGENNTLVWKYADAGHVCHLCHPNCTYGCTGPGLEGCPTNGPKIPSIATGMVGALLLLLVVALGIGLFMRRRHIVRKRTLRRLLQERELVEPLTPSGEAPNQALLRILKETEFKKIKVLGSGAFGTVYKGLWIPEGEKVKIPVAIKELREATSPKANKEILDEAYVMASVDNPHVCRLLGICLTSTVQLITQLMPFGCLLDYVREHKDNIGSQYLLNWCVQIAKGMNYLEDRRLVHRDLAARNVLVKTPQHVKITDFGLAKLLGAEEKEYHAEGGKVPIKWMALESILHRIYTHQSDVWSYGVTVWELMTFGSKPYDGIPASEISSILEKGERLPQPPICTIDVYMIMVKCWMIDADSRPKFRELIIEFSKMARDPQRYLVIQGDERMHLPSPTDSNFYRALMDEEDMDDVVDADEYLIPQQGFFSSPSTSRTPLLSSLSATSNNSTVACIDRNGLQSCPIKEDSFLQRYSSDPTGALTEDSIDDTFLPVPEYINQSVPKRPAGSVQNPVYHNQPLNPAPSRDPHYQDPHSTAVGNPEYLNTVQPTCVNSTFDSPAHWAQKGSHQISLDNPDYQQDFFPKEAKPNGIFKGSTAENAEYLRVAPQSSEFIGA

> <PDB ID(s) of Target Chain>
1IVO,1M14,1M17,1MOX,1XKK,1Z9I,2GS2,2GS6,2ITW,2ITX,2ITY,2J5E,2J5F,2J6M,2RF9,2RGP,3B2V,3BEL,3GOP,3POZ,3QWQ,3VJO,3W2O,3W2P,3W2Q,3W2R,3W2S,3W32,3W33,4G5J,4I23,4JQ7,4JQ8,4JR3,4JRV,4KRO,4LI5,4RJ4,4RJ5,4RJ6,4RJ7,4RJ8,4TKS,4UIP,4UV7,4WKQ,4WRG,4ZAU,5C8K,5C8M,5C8N,5CAL,5CAN,5CAO,5CAP,5CAQ,5CAS,5CAU,5CAV,5EDP,5EDQ,5EDR,5EM5,5EM6,5EM7,5EM8,5FED,5GNK,5HCX,5HCY,5HCZ,5HIB,5HIC,5UGB,5WB7,5WB8,5Y25,6S89,6S8A

> <UniProt (SwissProt) Recommended Name of Target Chain>
Epidermal growth factor receptor

> <UniProt (SwissProt) Entry Name of Target Chain>
EGFR_HUMAN

> <UniProt (SwissProt) Primary ID of Target Chain>
P00533

> <UniProt (SwissProt) Secondary ID(s) of Target Chain>
O00688,O00732,P06268,Q14225,Q68GS5,Q92795,Q9BZS2,Q9GZX1,Q9H2C9,Q9H3C9,Q9UMD7,Q9UMD8,Q9UMG5

> <UniProt (SwissProt) Alternative ID(s) of Target Chain>


> <UniProt (TrEMBL) Submitted Name of Target Chain>


> <UniProt (TrEMBL) Entry Name of Target Chain>


> <UniProt (TrEMBL) Primary ID of Target Chain>


> <UniProt (TrEMBL) Secondary ID(s) of Target Chain>


> <UniProt (TrEMBL) Alternative ID(s) of Target Chain>


> <training label>
5.21112

> <i_lp_mmshare_version>
54117

> <s_epik_input>
W0NIM11PYyhbY0hdMSljKE9bQ0gzXSlbY0hdYyhjMTIpbltjSF1uYzJbTkhdYzNbY0hdYyhDbCljKFtjSF1bY0hdMylbTkhdQyg9TylPW0NIM10=

> <s_epik_cmdline>
J2VwaWtfcHl0aG9uJywgJy1waHQnLCAnMC4xJywgJy1waCcsICc3LjQnLCAnLXRuJywgJzgnLCAnLW1hJywgJzIwMCcsICctaW1hZScsICc8aW5maWxlLm1hZT4nLCAnLW9tYWUnLCAnPG91dGZpbGUubWFlPic=

> <r_lp_tautomer_probability>
1

> <r_epik_Ionization_Penalty>
  0.0007

> <r_epik_Ionization_Penalty_Charging>
  0.0000

> <r_epik_Ionization_Penalty_Neutral>
  0.0007

> <r_epik_State_Penalty>
  0.0000

> <r_epik_Charging_Adjusted_Penalty>
0

> <i_epik_Tot_Q>
0

> <i_epik_Tot_abs_Q>
0

> <i_f3d_flags>
0

> <s_lp_Force_Field>
OPLS_2005

> <r_lp_Energy>
26.413444

> <b_lp_Chiralities_Consistent>
1

> <s_lp_Variant>
BindingDB_50380457_mol_1-1

> <s_i_glide_gridfile>
struct_1_site_1

> <i_i_glide_lignum>
33

> <i_i_glide_rotatable_bonds>
7

> <r_i_docking_score>
-6.00762972728428

> <r_i_glide_ligand_efficiency>
-0.222504804714232

> <r_i_glide_ligand_efficiency_sa>
-0.667514413409358

> <r_i_glide_ligand_efficiency_ln>
-1.39847715699505

> <r_i_glide_gscore>
-6.00762972728428

> <r_i_glide_lipo>
-2.70388678894128

> <r_i_glide_hbond>
-0.0511039600836766

> <r_i_glide_metal>
0

> <r_i_glide_rewards>
-1.34302926602461

> <r_i_glide_evdw>
-41.8942413330078

> <r_i_glide_ecoul>
-2.20368432998657

> <r_i_glide_erotb>
0.515655003913668

> <r_i_glide_esite>
0

> <r_i_glide_emodel>
-32.0034564958936

> <r_i_glide_energy>
-44.0979256629944

> <r_i_glide_einternal>
0.634100496768951

> <i_i_glide_confnum>
2

> <i_i_glide_posenum>
385

> <r_i_glide_eff_state_penalty>
0

> <PMID>
22229669

> <s_epik_Chemistry_Notes>
This compound has an ester and may undergo hydrolysis at high or low pH.

> <r_glide_shape_similarity>
0.717772543430328

> <s_m_subgroup_title>
505 training

> <s_m_subgroupid>
pocket_pv

> <b_m_subgroup_collapsed>
0

$$$$
/home/bortolaa/Project/GT/mario-master/ligands/set505ligs_train.sdf:224
                    3D
 Schrodinger Suite 2021-2.
 84 90  0  0  1  0            999 V2000
   11.4189    1.8239   52.1826 C   0  0  0  0  0  0
   12.2955    2.1892   53.4090 C   0  0  1  0  0  0
   11.8224    0.4163   51.6682 C   0  0  2  0  0  0
   12.0766    1.1512   54.5350 C   0  0  0  0  0  0
   11.5951   -0.6280   52.7935 C   0  0  0  0  0  0
   12.4638   -0.2620   54.0253 C   0  0  1  0  0  0
   13.3194    0.4212   51.2579 C   0  0  0  0  0  0
   14.2060    0.7723   52.4930 C   0  0  0  0  0  0
   13.7886    2.1831   52.9980 C   0  0  0  0  0  0
   13.9545   -0.2715   53.6194 C   0  0  0  0  0  0
   18.5519   -0.8712   52.8836 C   0  0  0  0  0  0
   19.8884   -0.6130   53.2320 C   0  0  0  0  0  0
   20.6079    0.4419   52.6393 C   0  0  0  0  0  0
   19.9374    1.2764   51.7168 C   0  0  0  0  0  0
   18.5728    1.0779   51.4230 C   0  0  0  0  0  0
   17.8604    0.0015   52.0051 C   0  0  0  0  0  0
   21.9617    0.7144   52.8957 N   0  0  0  0  0  0
   24.7877   -1.2652   55.2070 N   0  0  0  0  0  0
   23.4772   -1.4884   55.2898 C   0  0  0  0  0  0
   22.5364   -0.8865   54.5731 N   0  0  0  0  0  0
   22.9238    0.0550   53.6849 C   0  0  0  0  0  0
   24.2943    0.3968   53.5426 C   0  0  0  0  0  0
   24.7612    1.4283   52.6942 C   0  0  0  0  0  0
   26.1431    1.7173   52.5929 C   0  0  0  0  0  0
   27.0714    0.9643   53.3426 C   0  0  0  0  0  0
   26.5970   -0.0565   54.1983 C   0  0  0  0  0  0
   25.2197   -0.3350   54.3275 C   0  0  0  0  0  0
   26.6259    2.7390   51.7994 O   0  0  0  0  0  0
   26.1340    2.8310   50.4550 C   0  0  0  0  0  0
   26.3497    4.2427   49.8642 C   0  0  0  0  0  0
   25.3018    5.2718   50.3507 C   0  0  0  0  0  0
   25.4920    9.5217   49.9907 O   0  0  0  0  0  0
   26.6811    8.7848   49.6836 C   0  0  0  0  0  0
   26.5928    7.3493   50.2536 C   0  0  0  0  0  0
   25.4036    6.6269   49.7782 N   0  0  0  0  0  0
   24.2260    7.4319   50.1179 C   0  0  0  0  0  0
   24.3053    8.8608   49.5342 C   0  0  0  0  0  0
   28.4050    1.2677   53.1878 O   0  0  0  0  0  0
   29.3615    0.3749   53.7442 C   0  0  0  0  0  0
   16.3941   -0.1762   51.7221 C   0  0  0  0  0  0
   15.6357    0.8266   52.1774 N   0  0  0  0  0  0
   15.9422   -1.2140   51.2390 O   0  0  0  0  0  0
   17.9553   -2.0880   53.4174 C   0  0  0  0  0  0
   17.4876   -3.0650   53.8233 N   0  0  0  0  0  0
   10.3619    1.8397   52.4579 H   0  0  0  0  0  0
   11.5386    2.5696   51.3939 H   0  0  0  0  0  0
   12.0182    3.1824   53.7674 H   0  0  0  0  0  0
   11.2089    0.1604   50.8032 H   0  0  0  0  0  0
   11.0364    1.1661   54.8648 H   0  0  0  0  0  0
   12.6834    1.4256   55.3969 H   0  0  0  0  0  0
   11.8499   -1.6264   52.4357 H   0  0  0  0  0  0
   10.5414   -0.6548   53.0728 H   0  0  0  0  0  0
   12.2996   -0.9926   54.8188 H   0  0  0  0  0  0
   13.5700   -0.5574   50.8522 H   0  0  0  0  0  0
   13.4864    1.1411   50.4551 H   0  0  0  0  0  0
   13.9599    2.9308   52.2212 H   0  0  0  0  0  0
   14.4058    2.4827   53.8453 H   0  0  0  0  0  0
   14.5758   -0.0608   54.4903 H   0  0  0  0  0  0
   14.2306   -1.2747   53.2930 H   0  0  0  0  0  0
   20.3401   -1.3121   53.9139 H   0  0  0  0  0  0
   20.4580    2.0986   51.2471 H   0  0  0  0  0  0
   18.0755    1.7477   50.7363 H   0  0  0  0  0  0
   22.3437    1.4555   52.3309 H   0  0  0  0  0  0
   23.1536   -2.2321   56.0030 H   0  0  0  0  0  0
   24.0598    2.0322   52.1419 H   0  0  0  0  0  0
   27.2805   -0.6337   54.7950 H   0  0  0  0  0  0
   26.6856    2.1056   49.8606 H   0  0  0  0  0  0
   25.0835    2.5690   50.3532 H   0  0  0  0  0  0
   27.3605    4.5744   50.0994 H   0  0  0  0  0  0
   26.2895    4.1812   48.7772 H   0  0  0  0  0  0
   24.3168    4.8666   50.1170 H   0  0  0  0  0  0
   25.3379    5.3310   51.4343 H   0  0  0  0  0  0
   26.8212    8.7570   48.6028 H   0  0  0  0  0  0
   27.5416    9.3031   50.1074 H   0  0  0  0  0  0
   26.5703    7.4126   51.3418 H   0  0  0  0  0  0
   27.4967    6.8008   49.9934 H   0  0  0  0  0  0
   23.3228    6.9408   49.7542 H   0  0  0  0  0  0
   24.1255    7.4957   51.2021 H   0  0  0  0  0  0
   24.3086    8.8219   48.4453 H   0  0  0  0  0  0
   23.4319    9.4398   49.8360 H   0  0  0  0  0  0
   30.3634    0.6980   53.4595 H   0  0  0  0  0  0
   29.3188    0.3796   54.8341 H   0  0  0  0  0  0
   29.2249   -0.6421   53.3749 H   0  0  0  0  0  0
   16.1302    1.6297   52.5355 H   0  0  0  0  0  0
  1  2  1  0  0  0
  1  3  1  0  0  0
  1 45  1  0  0  0
  1 46  1  0  0  0
  2  4  1  0  0  0
  2  9  1  0  0  0
  2 47  1  0  0  0
  3  5  1  0  0  0
  3  7  1  0  0  0
  3 48  1  0  0  0
  4  6  1  0  0  0
  4 49  1  0  0  0
  4 50  1  0  0  0
  5  6  1  0  0  0
  5 51  1  0  0  0
  5 52  1  0  0  0
  6 10  1  0  0  0
  6 53  1  0  0  0
  7  8  1  0  0  0
  7 54  1  0  0  0
  7 55  1  0  0  0
  8 10  1  0  0  0
  8  9  1  0  0  0
  8 41  1  0  0  0
  9 56  1  0  0  0
  9 57  1  0  0  0
 10 58  1  0  0  0
 10 59  1  0  0  0
 11 12  1  0  0  0
 11 16  2  0  0  0
 11 43  1  0  0  0
 12 13  2  0  0  0
 12 60  1  0  0  0
 13 14  1  0  0  0
 13 17  1  0  0  0
 14 15  2  0  0  0
 14 61  1  0  0  0
 15 16  1  0  0  0
 15 62  1  0  0  0
 16 40  1  0  0  0
 17 21  1  0  0  0
 17 63  1  0  0  0
 18 19  1  0  0  0
 18 27  2  0  0  0
 19 20  2  0  0  0
 19 64  1  0  0  0
 20 21  1  0  0  0
 21 22  2  0  0  0
 22 23  1  0  0  0
 22 27  1  0  0  0
 23 24  2  0  0  0
 23 65  1  0  0  0
 24 25  1  0  0  0
 24 28  1  0  0  0
 25 26  2  0  0  0
 25 38  1  0  0  0
 26 27  1  0  0  0
 26 66  1  0  0  0
 28 29  1  0  0  0
 29 30  1  0  0  0
 29 67  1  0  0  0
 29 68  1  0  0  0
 30 31  1  0  0  0
 30 69  1  0  0  0
 30 70  1  0  0  0
 31 35  1  0  0  0
 31 71  1  0  0  0
 31 72  1  0  0  0
 32 33  1  0  0  0
 32 37  1  0  0  0
 33 34  1  0  0  0
 33 73  1  0  0  0
 33 74  1  0  0  0
 34 35  1  0  0  0
 34 75  1  0  0  0
 34 76  1  0  0  0
 35 36  1  0  0  0
 36 37  1  0  0  0
 36 77  1  0  0  0
 36 78  1  0  0  0
 37 79  1  0  0  0
 37 80  1  0  0  0
 38 39  1  0  0  0
 39 81  1  0  0  0
 39 82  1  0  0  0
 39 83  1  0  0  0
 40 41  1  0  0  0
 40 42  2  0  0  0
 41 84  1  0  0  0
 43 44  3  0  0  0
M  END
> <s_m_entry_id>
440

> <s_m_entry_name>
pocket_pv.251

> <s_m_Source_Path>
/home/bortolaa/Project/GT/mario-master/docking/set505protein_struct_1_site_1_set505ligs_train

> <s_m_Source_File>
pocket_pv.maegz

> <i_m_Source_File_Index>
251

> <From>
www.bindingDB.org

> <BindingDB Reactant_set_id>
50467787

> <Ligand InChI>
InChI=1S/C34H40N6O4/c1-42-30-16-29-28(15-31(30)44-8-2-5-40-6-9-43-10-7-40)32(37-21-36-29)38-26-3-4-27(25(14-26)20-35)33(41)39-34-17-22-11-23(18-34)13-24(12-22)19-34/h3-4,14-16,21-24H,2,5-13,17-19H2,1H3,(H,39,41)(H,36,37,38)

> <Ligand InChI Key>
ILELYGJULOBWTL-UHFFFAOYSA-N

> <BindingDB MonomerID>
50147000

> <BindingDB Ligand Name>
CHEMBL3765425

> <Target Name Assigned by Curator or DataSource>
Epidermal growth factor receptor

> <Target Source Organism According to Curator or DataSource>


> <Ki (nM)>


> <Kd (nM)>


> <EC50 (nM)>


> <kon (M-1-s-1)>


> <koff (s-1)>


> <pH>


> <Temp C>


> <Curation/DataSource>
ChEMBL

> <Article DOI>
10.1016/j.ejmech.2016.01.045

> <PubChem AID>


> <Patent Number>


> <Authors>
Yu, H; Li, Y; Ge, Y; Song, Z; Wang, C; Huang, S; Jin, Y; Han, X; Zhen, Y; Liu, K; Zhou, Y; Ma, X

> <Institution>
Dalian Medical University

> <Link to Ligand in BindingDB>
http://www.bindingdb.org/bind/chemsearch/marvin/MolStructure.jsp?monomerid=50147000

> <Link to Ligand-Target Pair in BindingDB>
http://www.bindingdb.org/jsp/dbsearch/PrimarySearch_ki.jsp?energyterm=kJ/mole&tag=r21&monomerid=50147000&enzyme=Epidermal+growth+factor+receptor&column=ki&startPg=0&Increment=50&submit=Search

> <Ligand HET ID in PDB>


> <PDB ID(s) for Ligand-Target Complex>


> <PubChem CID>
44330845

> <PubChem SID>
85455674

> <ChEBI ID of Ligand>


> <ChEMBL ID of Ligand>
CHEMBL3765425

> <DrugBank ID of Ligand>


> <IUPHAR_GRAC ID of Ligand>


> <KEGG ID of Ligand>


> <ZINC ID of Ligand>


> <Number of Protein Chains in Target (>
4

> <BindingDB Target Chain Sequence>
MRANDALQVLGLLFSLARGSEVGNSQAVCPGTLNGLSVTGDAENQYQTLYKLYERCEVVMGNLEIVLTGHNADLSFLQWIREVTGYVLVAMNEFSTLPLPNLRVVRGTQVYDGKFAIFVMLNYNTNSSHALRQLRLTQLTEILSGGVYIEKNDKLCHMDTIDWRDIVRDRDAEIVVKDNGRSCPPCHEVCKGRCWGPGSEDCQTLTKTICAPQCNGHCFGPNPNQCCHDECAGGCSGPQDTDCFACRHFNDSGACVPRCPQPLVYNKLTFQLEPNPHTKYQYGGVCVASCPHNFVVDQTSCVRACPPDKMEVDKNGLKMCEPCGGLCPKACEGTGSGSRFQTVDSSNIDGFVNCTKILGNLDFLITGLNGDPWHKIPALDPEKLNVFRTVREITGYLNIQSWPPHMHNFSVFSNLTTIGGRSLYNRGFSLLIMKNLNVTSLGFRSLKEISAGRIYISANRQLCYHHSLNWTKVLRGPTEERLDIKHNRPRRDCVAEGKVCDPLCSSGGCWGPGPGQCLSCRNYSRGGVCVTHCNFLNGEPREFAHEAECFSCHPECQPMEGTATCNGSGSDTCAQCAHFRDGPHCVSSCPHGVLGAKGPIYKYPDVQNECRPCHENCTQGCKGPELQDCLGQTLVLIGKTHLTMALTVIAGLVVIFMMLGGTFLYWRGRRIQNKRAMRRYLERGESIEPLDPSEKANKVLARIFKETELRKLKVLGSGVFGTVHKGVWIPEGESIKIPVCIKVIEDKSGRQSFQAVTDHMLAIGSLDHAHIVRLLGLCPGSSLQLVTQYLPLGSLLDHVRQHRGALGPQLLLNWGVQIAKGMYYLEEHGMVHRNLAARNVLLKSPSQVQVADFGVADLLPPDDKQLLYSEAKTPIKWMALESIHFGKYTHQSDVWSYGVTVWELMTFGAEPYAGLRLAEVPDLLEKGERLAQPQICTIDVYMVMVKCWMIDENIRPTFKELANEFTRMARDPPRYLVIKRESGPGIAPGPEPHGLTNKKLEEVELEPELDLDLDLEAEEDNLATTTLGSALSLPVGTLNRPRGSQSLLSPSSGYMPMNQGNLGESCQESAVSGSSERCPRPVSLHPMPRGCLASESSEGHVTGSEAELQEKVSMCRSRSRSRSPRPRGDSAYHSQRHSLLTPVTPLSPPGLEEEDVNGYVMPDTHLKGTPSSREGTLSSVGLSSVLGTEEEDEDEEYEYMNRRRRHSPPHPPRPSSLEELGYEYMDVGSDLSASLGSTQSCPLHPVPIMPTAGTTPDEDYEYMNRQRDGGGPGGDYAAMGACPASEQGYEEMRAFQGPGHQAPHVHYARLKTLRSLEATDSAFDNPDYWHSRLFPKANAQRT

> <PDB ID(s) of Target Chain>
3KEX,4RIX,4RIY,5CUS,5O4O,5O7P,6OP9

> <UniProt (SwissProt) Recommended Name of Target Chain>
Receptor tyrosine-protein kinase erbB-3

> <UniProt (SwissProt) Entry Name of Target Chain>
ERBB3_HUMAN

> <UniProt (SwissProt) Primary ID of Target Chain>
P21860

> <UniProt (SwissProt) Secondary ID(s) of Target Chain>
A8K6L6,B4DIK7,B4DV32,E9PDT8,Q9BUD7

> <UniProt (SwissProt) Alternative ID(s) of Target Chain>


> <UniProt (TrEMBL) Submitted Name of Target Chain>


> <UniProt (TrEMBL) Entry Name of Target Chain>


> <UniProt (TrEMBL) Primary ID of Target Chain>


> <UniProt (TrEMBL) Secondary ID(s) of Target Chain>


> <UniProt (TrEMBL) Alternative ID(s) of Target Chain>


> <training label>
8.24413

> <i_lp_mmshare_version>
54117

> <s_epik_input>
W0NIMl0xW0NAQEhdKFtDSDJdMilbQ0gyXVtDQEBIXShbQ0gyXTMpW0NIMl1bQ0BIXTFbQ0gyXUMyM1tOSF1DKD1PKWM0W2NIXVtjSF1jKFtjSF1jNEMjTilbTkhdYzVuW2NIXW5jKGM1NilbY0hdYyhPW0NIM10pYyhbY0hdNilPW0NIMl1bQ0gyXVtDSDJdTjdbQ0gyXVtDSDJdT1tDSDJdW0NIMl03

> <s_epik_cmdline>
J2VwaWtfcHl0aG9uJywgJy1waHQnLCAnMC4xJywgJy1waCcsICc3LjQnLCAnLXRuJywgJzgnLCAnLW1hJywgJzIwMCcsICctaW1hZScsICc8aW5maWxlLm1hZT4nLCAnLW9tYWUnLCAnPG91dGZpbGUubWFlPic=

> <r_lp_tautomer_probability>
0.999978000241998

> <r_epik_Ionization_Penalty>
  0.1968

> <r_epik_Ionization_Penalty_Charging>
  0.0000

> <r_epik_Ionization_Penalty_Neutral>
  0.1968

> <r_epik_State_Penalty>
  0.1860

> <r_epik_Charging_Adjusted_Penalty>
0.186024314191534

> <i_epik_Tot_Q>
0

> <i_epik_Tot_abs_Q>
0

> <i_f3d_flags>
0

> <s_lp_Force_Field>
OPLS_2005

> <r_lp_Energy>
75.137372

> <b_lp_Chiralities_Consistent>
1

> <s_lp_Variant>
/home/bortolaa/Project/GT/mario-master/ligands/set505ligs_train.sdf:224-1

> <s_i_glide_gridfile>
struct_1_site_1

> <i_i_glide_lignum>
250

> <i_i_glide_rotatable_bonds>
11

> <r_i_docking_score>
-5.98410181891974

> <r_i_glide_ligand_efficiency>
-0.136002314066358

> <r_i_glide_ligand_efficiency_sa>
-0.480135542459017

> <r_i_glide_ligand_efficiency_ln>
-1.25080782260271

> <r_i_glide_gscore>
-6.17010181891974

> <r_i_glide_lipo>
-2.50748190863377

> <r_i_glide_hbond>
0

> <r_i_glide_metal>
0

> <r_i_glide_rewards>
-1.00456631453201

> <r_i_glide_evdw>
-54.7724418640137

> <r_i_glide_ecoul>
-2.23873353004456

> <r_i_glide_erotb>
0.416378526953411

> <r_i_glide_esite>
0

> <r_i_glide_emodel>
-22.6999297063302

> <r_i_glide_energy>
-57.0111753940582

> <r_i_glide_einternal>
7.98206949234009

> <i_i_glide_confnum>
333

> <i_i_glide_posenum>
23

> <r_i_glide_eff_state_penalty>
0.186

> <IC50 (nM)>
5.7

> <PMID>
26829280

> <r_glide_shape_similarity>
0.472803056240082

> <s_m_subgroup_title>
505 training

> <s_m_subgroupid>
pocket_pv

> <b_m_subgroup_collapsed>
0

$$$$
/home/bortolaa/Project/GT/mario-master/ligands/set505ligs_train.sdf:226
                    3D
 Schrodinger Suite 2021-2.
 69 73  0  0  1  0            999 V2000
   24.8532    3.5152   51.0237 C   0  0  0  0  0  0
   25.2324    4.9160   50.9551 C   0  0  0  0  0  0
   25.7277    5.4748   49.8297 C   0  0  0  0  0  0
   26.1188    6.9473   49.7271 C   0  0  0  0  0  0
   24.1787    2.9387   50.1663 O   0  0  0  0  0  0
   25.3283    2.9160   52.1392 N   0  0  0  0  0  0
   27.6008    7.1329   49.7732 N   0  3  0  0  0  0
   27.9983    8.5180   50.1779 C   0  0  0  0  0  0
   29.5314    8.6548   50.3422 C   0  0  0  0  0  0
   30.2872    8.1992   49.0764 C   0  0  0  0  0  0
   29.8368    6.7825   48.6646 C   0  0  0  0  0  0
   28.2982    6.6996   48.5202 C   0  0  0  0  0  0
   23.2983   -1.4334   55.0602 N   0  0  0  0  0  0
   21.9946   -1.6883   54.9476 C   0  0  0  0  0  0
   21.1307   -1.1267   54.1057 N   0  0  0  0  0  0
   21.6259   -0.1534   53.3199 C   0  0  0  0  0  0
   22.9739    0.2601   53.3976 C   0  0  0  0  0  0
   23.4834    1.3550   52.6599 C   0  0  0  0  0  0
   24.8467    1.7126   52.7378 C   0  0  0  0  0  0
   25.7225    0.9225   53.5083 C   0  0  0  0  0  0
   25.1825   -0.1366   54.2929 C   0  0  0  0  0  0
   23.8129   -0.4665   54.2679 C   0  0  0  0  0  0
   27.0643    1.2406   53.4657 O   0  0  0  0  0  0
   30.1325   -0.4640   53.9399 O   0  0  0  0  0  0
   29.4106    0.7582   53.8222 C   0  0  0  0  0  0
   27.9752    0.2871   53.9901 C   0  0  2  0  0  0
   27.9744   -1.0473   53.2382 C   0  0  0  0  0  0
   29.4423   -1.4599   53.1973 C   0  0  0  0  0  0
   20.8497    0.4405   52.3283 N   0  0  0  0  0  0
   19.5034    0.4020   51.9893 C   0  0  0  0  0  0
   19.1882    1.2622   50.9236 C   0  0  0  0  0  0
   17.8628    1.4022   50.4821 C   0  0  0  0  0  0
   16.8363    0.6565   51.1175 C   0  0  0  0  0  0
   17.1536   -0.2264   52.1762 C   0  0  0  0  0  0
   18.4915   -0.3700   52.6098 C   0  0  0  0  0  0
   17.6098    2.3387   49.3915 C   0  0  0  0  0  0
   17.4663    3.1498   48.4893 C   0  0  0  0  0  0
   25.0867    5.5313   51.8297 H   0  0  0  0  0  0
   25.8675    4.8732   48.9384 H   0  0  0  0  0  0
   25.6997    7.3848   48.8196 H   0  0  0  0  0  0
   25.6708    7.4746   50.5737 H   0  0  0  0  0  0
   26.0411    3.4166   52.6620 H   0  0  0  0  0  0
   27.6369    9.2305   49.4380 H   0  0  0  0  0  0
   27.5176    8.7734   51.1247 H   0  0  0  0  0  0
   29.7941    9.6879   50.5770 H   0  0  0  0  0  0
   29.8632    8.0549   51.1886 H   0  0  0  0  0  0
   31.3613    8.2174   49.2544 H   0  0  0  0  0  0
   30.1017    8.8998   48.2658 H   0  0  0  0  0  0
   30.1684    6.0692   49.4195 H   0  0  0  0  0  0
   30.3202    6.4930   47.7300 H   0  0  0  0  0  0
   28.0196    5.6773   48.2703 H   0  0  0  0  0  0
   27.9678    7.3245   47.6916 H   0  0  0  0  0  0
   21.6038   -2.4769   55.5694 H   0  0  0  0  0  0
   22.8264    1.9747   52.0711 H   0  0  0  0  0  0
   25.7983   -0.7199   54.9536 H   0  0  0  0  0  0
   29.5748    1.2007   52.8377 H   0  0  0  0  0  0
   29.7140    1.4803   54.5839 H   0  0  0  0  0  0
   27.8078    0.1300   55.0571 H   0  0  0  0  0  0
   27.3700   -1.8025   53.7402 H   0  0  0  0  0  0
   27.5894   -0.9231   52.2254 H   0  0  0  0  0  0
   29.6249   -2.4586   53.6004 H   0  0  0  0  0  0
   29.8118   -1.4065   52.1765 H   0  0  0  0  0  0
   21.3762    1.0667   51.7389 H   0  0  0  0  0  0
   19.9652    1.8431   50.4458 H   0  0  0  0  0  0
   15.8100    0.7635   50.7947 H   0  0  0  0  0  0
   16.3698   -0.7866   52.6644 H   0  0  0  0  0  0
   18.7085   -1.0381   53.4269 H   0  0  0  0  0  0
   17.3283    3.8652   47.7089 H   0  0  0  0  0  0
   27.9237    6.5194   50.5288 H   0  0  0  0  0  0
  1  2  1  0  0  0
  1  5  2  0  0  0
  1  6  1  0  0  0
  2  3  2  0  0  0
  2 38  1  0  0  0
  3  4  1  0  0  0
  3 39  1  0  0  0
  4  7  1  0  0  0
  4 40  1  0  0  0
  4 41  1  0  0  0
  6 19  1  0  0  0
  6 42  1  0  0  0
  7  8  1  0  0  0
  7 12  1  0  0  0
  7 69  1  0  0  0
  8  9  1  0  0  0
  8 43  1  0  0  0
  8 44  1  0  0  0
  9 10  1  0  0  0
  9 45  1  0  0  0
  9 46  1  0  0  0
 10 11  1  0  0  0
 10 47  1  0  0  0
 10 48  1  0  0  0
 11 12  1  0  0  0
 11 49  1  0  0  0
 11 50  1  0  0  0
 12 51  1  0  0  0
 12 52  1  0  0  0
 13 14  1  0  0  0
 13 22  2  0  0  0
 14 15  2  0  0  0
 14 53  1  0  0  0
 15 16  1  0  0  0
 16 17  2  0  0  0
 16 29  1  0  0  0
 17 18  1  0  0  0
 17 22  1  0  0  0
 18 19  2  0  0  0
 18 54  1  0  0  0
 19 20  1  0  0  0
 20 21  2  0  0  0
 20 23  1  0  0  0
 21 22  1  0  0  0
 21 55  1  0  0  0
 23 26  1  0  0  0
 24 25  1  0  0  0
 24 28  1  0  0  0
 25 26  1  0  0  0
 25 56  1  0  0  0
 25 57  1  0  0  0
 26 27  1  0  0  0
 26 58  1  0  0  0
 27 28  1  0  0  0
 27 59  1  0  0  0
 27 60  1  0  0  0
 28 61  1  0  0  0
 28 62  1  0  0  0
 29 30  1  0  0  0
 29 63  1  0  0  0
 30 31  1  0  0  0
 30 35  2  0  0  0
 31 32  2  0  0  0
 31 64  1  0  0  0
 32 33  1  0  0  0
 32 36  1  0  0  0
 33 34  2  0  0  0
 33 65  1  0  0  0
 34 35  1  0  0  0
 34 66  1  0  0  0
 35 67  1  0  0  0
 36 37  3  0  0  0
 37 68  1  0  0  0
M  CHG  1   7   1
M  END
> <s_m_entry_id>
441

> <s_m_entry_name>
pocket_pv.252

> <s_m_Source_Path>
/home/bortolaa/Project/GT/mario-master/docking/set505protein_struct_1_site_1_set505ligs_train

> <s_m_Source_File>
pocket_pv.maegz

> <i_m_Source_File_Index>
252

> <From>
www.bindingDB.org

> <BindingDB Reactant_set_id>
50419138

> <Ligand InChI>
InChI=1S/C29H31N5O3/c1-2-21-8-6-9-22(16-21)32-29-24-17-26(33-28(35)10-7-14-34-12-4-3-5-13-34)27(18-25(24)30-20-31-29)37-23-11-15-36-19-23/h1,6-10,16-18,20,23H,3-5,11-15,19H2,(H,33,35)(H,30,31,32)/b10-7+/t23-/m0/s1

> <Ligand InChI Key>
DSXOBDJKBFVEOH-KXOMFBTKSA-N

> <BindingDB MonomerID>
50123164

> <BindingDB Ligand Name>
CHEMBL3622671

> <Target Name Assigned by Curator or DataSource>
Epidermal growth factor receptor

> <Target Source Organism According to Curator or DataSource>
Homo sapiens

> <Ki (nM)>


> <Kd (nM)>


> <EC50 (nM)>


> <kon (M-1-s-1)>


> <koff (s-1)>


> <pH>


> <Temp C>


> <Curation/DataSource>
ChEMBL

> <Article DOI>
10.1016/j.ejmech.2015.08.026

> <PubChem AID>


> <Patent Number>


> <Authors>
Zhang, L; Yang, Y; Zhou, H; Zheng, Q; Li, Y; Zheng, S; Zhao, S; Chen, D; Fan, C

> <Institution>
Qilu Pharmaceutical Co, Ltd

> <Link to Ligand in BindingDB>
http://www.bindingdb.org/bind/chemsearch/marvin/MolStructure.jsp?monomerid=50123164

> <Link to Ligand-Target Pair in BindingDB>
http://www.bindingdb.org/jsp/dbsearch/PrimarySearch_ki.jsp?energyterm=kJ/mole&tag=r21&monomerid=50123164&enzyme=Epidermal+growth+factor+receptor&column=ki&startPg=0&Increment=50&submit=Search

> <Ligand HET ID in PDB>


> <PDB ID(s) for Ligand-Target Complex>


> <PubChem CID>
122191955

> <PubChem SID>
321901897

> <ChEBI ID of Ligand>


> <ChEMBL ID of Ligand>
CHEMBL3622671

> <DrugBank ID of Ligand>


> <IUPHAR_GRAC ID of Ligand>


> <KEGG ID of Ligand>


> <ZINC ID of Ligand>


> <Number of Protein Chains in Target (>
1

> <BindingDB Target Chain Sequence>
MRPSGTAGAALLALLAALCPASRALEEKKVCQGTSNKLTQLGTFEDHFLSLQRMFNNCEVVLGNLEITYVQRNYDLSFLKTIQEVAGYVLIALNTVERIPLENLQIIRGNMYYENSYALAVLSNYDANKTGLKELPMRNLQEILHGAVRFSNNPALCNVESIQWRDIVSSDFLSNMSMDFQNHLGSCQKCDPSCPNGSCWGAGEENCQKLTKIICAQQCSGRCRGKSPSDCCHNQCAAGCTGPRESDCLVCRKFRDEATCKDTCPPLMLYNPTTYQMDVNPEGKYSFGATCVKKCPRNYVVTDHGSCVRACGADSYEMEEDGVRKCKKCEGPCRKVCNGIGIGEFKDSLSINATNIKHFKNCTSISGDLHILPVAFRGDSFTHTPPLDPQELDILKTVKEITGFLLIQAWPENRTDLHAFENLEIIRGRTKQHGQFSLAVVSLNITSLGLRSLKEISDGDVIISGNKNLCYANTINWKKLFGTSGQKTKIISNRGENSCKATGQVCHALCSPEGCWGPEPRDCVSCRNVSRGRECVDKCNLLEGEPREFVENSECIQCHPECLPQAMNITCTGRGPDNCIQCAHYIDGPHCVKTCPAGVMGENNTLVWKYADAGHVCHLCHPNCTYGCTGPGLEGCPTNGPKIPSIATGMVGALLLLLVVALGIGLFMRRRHIVRKRTLRRLLQERELVEPLTPSGEAPNQALLRILKETEFKKIKVLGSGAFGTVYKGLWIPEGEKVKIPVAIKELREATSPKANKEILDEAYVMASVDNPHVCRLLGICLTSTVQLITQLMPFGCLLDYVREHKDNIGSQYLLNWCVQIAKGMNYLEDRRLVHRDLAARNVLVKTPQHVKITDFGLAKLLGAEEKEYHAEGGKVPIKWMALESILHRIYTHQSDVWSYGVTVWELMTFGSKPYDGIPASEISSILEKGERLPQPPICTIDVYMIMVKCWMIDADSRPKFRELIIEFSKMARDPQRYLVIQGDERMHLPSPTDSNFYRALMDEEDMDDVVDADEYLIPQQGFFSSPSTSRTPLLSSLSATSNNSTVACIDRNGLQSCPIKEDSFLQRYSSDPTGALTEDSIDDTFLPVPEYINQSVPKRPAGSVQNPVYHNQPLNPAPSRDPHYQDPHSTAVGNPEYLNTVQPTCVNSTFDSPAHWAQKGSHQISLDNPDYQQDFFPKEAKPNGIFKGSTAENAEYLRVAPQSSEFIGA

> <PDB ID(s) of Target Chain>
1IVO,1M14,1M17,1MOX,1XKK,1Z9I,2GS2,2GS6,2ITW,2ITX,2ITY,2J5E,2J5F,2J6M,2RF9,2RGP,3B2V,3BEL,3GOP,3POZ,3QWQ,3VJO,3W2O,3W2P,3W2Q,3W2R,3W2S,3W32,3W33,4G5J,4I23,4JQ7,4JQ8,4JR3,4JRV,4KRO,4LI5,4RJ4,4RJ5,4RJ6,4RJ7,4RJ8,4TKS,4UIP,4UV7,4WKQ,4WRG,4ZAU,5C8K,5C8M,5C8N,5CAL,5CAN,5CAO,5CAP,5CAQ,5CAS,5CAU,5CAV,5EDP,5EDQ,5EDR,5EM5,5EM6,5EM7,5EM8,5FED,5GNK,5HCX,5HCY,5HCZ,5HIB,5HIC,5UGB,5WB7,5WB8,5Y25,6S89,6S8A

> <UniProt (SwissProt) Recommended Name of Target Chain>
Epidermal growth factor receptor

> <UniProt (SwissProt) Entry Name of Target Chain>
EGFR_HUMAN

> <UniProt (SwissProt) Primary ID of Target Chain>
P00533

> <UniProt (SwissProt) Secondary ID(s) of Target Chain>
O00688,O00732,P06268,Q14225,Q68GS5,Q92795,Q9BZS2,Q9GZX1,Q9H2C9,Q9H3C9,Q9UMD7,Q9UMD8,Q9UMG5

> <UniProt (SwissProt) Alternative ID(s) of Target Chain>


> <UniProt (TrEMBL) Submitted Name of Target Chain>


> <UniProt (TrEMBL) Entry Name of Target Chain>


> <UniProt (TrEMBL) Primary ID of Target Chain>


> <UniProt (TrEMBL) Secondary ID(s) of Target Chain>


> <UniProt (TrEMBL) Alternative ID(s) of Target Chain>


> <training label>
8.27572

> <i_lp_mmshare_version>
54117

> <s_epik_input>
W0NIMl0xW0NIMl1bQ0gyXVtDSDJdW0NIMl1OMVtDSDJdXFtDSF09W0NIXVxDKD1PKVtOSF1jKFtjSF0yKWMoT1tDQEBIXTNbQ0gyXU9bQ0gyXVtDSDJdMylbY0hdYyhjMjQpbltjSF1uYzRbTkhdYzVbY0hdYyhDI1tDSF0pW2NIXVtjSF1bY0hdNQ==

> <s_epik_cmdline>
J2VwaWtfcHl0aG9uJywgJy1waHQnLCAnMC4xJywgJy1waCcsICc3LjQnLCAnLXRuJywgJzgnLCAnLW1hJywgJzIwMCcsICctaW1hZScsICc8aW5maWxlLm1hZT4nLCAnLW9tYWUnLCAnPG91dGZpbGUubWFlPic=

> <r_lp_tautomer_probability>
0.999978000241998

> <r_epik_Ionization_Penalty>
  0.1965

> <r_epik_Ionization_Penalty_Charging>
  0.1960

> <r_epik_Ionization_Penalty_Neutral>
  0.0005

> <r_epik_State_Penalty>
  0.1858

> <r_epik_Charging_Adjusted_Penalty>
0.381771964848409

> <i_epik_Tot_Q>
1

> <i_epik_Tot_abs_Q>
1

> <i_f3d_flags>
0

> <s_lp_Force_Field>
OPLS_2005

> <r_lp_Energy>
43.994157

> <b_lp_Chiralities_Consistent>
1

> <s_lp_Variant>
/home/bortolaa/Project/GT/mario-master/ligands/set505ligs_train.sdf:226-1

> <s_i_glide_gridfile>
struct_1_site_1

> <i_i_glide_lignum>
252

> <i_i_glide_rotatable_bonds>
10

> <r_i_docking_score>
-5.96660558077173

> <r_i_glide_ligand_efficiency>
-0.161259610291128

> <r_i_glide_ligand_efficiency_sa>
-0.537352796553228

> <r_i_glide_ligand_efficiency_ln>
-1.29401687338868

> <r_i_glide_gscore>
-6.15240558077173

> <r_i_glide_lipo>
-2.95317280194442

> <r_i_glide_hbond>
-0.202870048486685

> <r_i_glide_metal>
0

> <r_i_glide_rewards>
-0.262465202655507

> <r_i_glide_evdw>
-52.367130279541

> <r_i_glide_ecoul>
-4.38961982727051

> <r_i_glide_erotb>
0.738798262859719

> <r_i_glide_esite>
-0.195896302477213

> <r_i_glide_emodel>
-35.9179269087335

> <r_i_glide_energy>
-56.7567501068115

> <r_i_glide_einternal>
8.38726425170898

> <i_i_glide_confnum>
16

> <i_i_glide_posenum>
255

> <r_i_glide_eff_state_penalty>
0.1858

> <IC50 (nM)>
5.3

> <PMID>
26310890

> <r_glide_shape_similarity>
0.568198561668396

> <s_m_subgroup_title>
505 training

> <s_m_subgroupid>
pocket_pv

> <b_m_subgroup_collapsed>
0

$$$$
BindingDB_50380446_mol_1
                    3D
 Schrodinger Suite 2021-2.
 50 52  0  0  1  0            999 V2000
   26.1993    1.7105   52.7158 C   0  0  0  0  0  0
   27.1691    0.9759   53.3981 C   0  0  0  0  0  0
   26.7767   -0.0588   54.2565 C   0  0  0  0  0  0
   24.8359    1.3663   52.8376 C   0  0  0  0  0  0
   26.6722    2.7350   51.9332 O   0  0  0  0  0  0
   25.7304    3.6417   51.3890 C   0  0  0  0  0  0
   28.4711    1.3368   53.1958 O   0  0  0  0  0  0
   29.4128    0.8621   54.1272 C   0  0  0  0  0  0
   24.4489    0.3179   53.6902 C   0  0  0  0  0  0
   25.4221   -0.3569   54.4495 C   0  0  0  0  0  0
   25.0630   -1.2672   55.3650 N   0  0  0  0  0  0
   23.7792   -1.5893   55.4591 C   0  0  0  0  0  0
   22.8009   -1.0835   54.7373 N   0  0  0  0  0  0
   23.1174   -0.1167   53.8589 C   0  0  0  0  0  0
   22.1109    0.4675   53.0957 N   0  0  0  0  0  0
   20.7819    0.1117   52.8996 C   0  0  0  0  0  0
   20.0953   -0.8674   53.6454 C   0  0  0  0  0  0
   18.7634   -1.1633   53.3569 C   0  0  0  0  0  0
   18.0862   -0.4442   52.3625 C   0  0  0  0  0  0
   18.7550    0.5418   51.6207 C   0  0  0  0  0  0
   20.1055    0.8022   51.8840 C   0  0  0  0  0  0
   16.7376   -0.7524   52.1324 N   0  0  0  0  0  0
   15.7372    0.1598   52.3179 C   0  0  0  0  0  0
   14.7673   -0.4656   52.9681 O   0  0  0  0  0  0
   15.7308    1.3345   51.9634 O   0  0  0  0  0  0
   13.6245    0.2398   53.4046 C   0  0  0  0  0  0
   12.5677    0.2575   52.2963 C   0  0  0  0  0  0
   18.0716   -2.2620   54.1358 C   0  0  0  0  0  0
   27.5081   -0.6274   54.8051 H   0  0  0  0  0  0
   24.0897    1.9105   52.2846 H   0  0  0  0  0  0
   26.2675    4.4656   50.9226 H   0  0  0  0  0  0
   25.1164    3.1710   50.6223 H   0  0  0  0  0  0
   25.0834    4.0720   52.1560 H   0  0  0  0  0  0
   30.3211    1.4442   54.0268 H   0  0  0  0  0  0
   29.0756    1.0047   55.1562 H   0  0  0  0  0  0
   29.6596   -0.1874   53.9568 H   0  0  0  0  0  0
   23.5122   -2.3578   56.1696 H   0  0  0  0  0  0
   22.4408    1.1826   52.4729 H   0  0  0  0  0  0
   20.5356   -1.4327   54.4401 H   0  0  0  0  0  0
   18.2398    1.0867   50.8412 H   0  0  0  0  0  0
   20.6152    1.5578   51.3024 H   0  0  0  0  0  0
   16.4599   -1.6664   52.4497 H   0  0  0  0  0  0
   13.8798    1.2538   53.7149 H   0  0  0  0  0  0
   13.2227   -0.2661   54.2858 H   0  0  0  0  0  0
   11.6632    0.7664   52.6361 H   0  0  0  0  0  0
   12.2876   -0.7528   52.0028 H   0  0  0  0  0  0
   12.9277    0.7843   51.4103 H   0  0  0  0  0  0
   18.6905   -2.6549   54.9417 H   0  0  0  0  0  0
   17.1461   -1.8954   54.5753 H   0  0  0  0  0  0
   17.8206   -3.0916   53.4761 H   0  0  0  0  0  0
  1  2  2  0  0  0
  1  4  1  0  0  0
  1  5  1  0  0  0
  2  3  1  0  0  0
  2  7  1  0  0  0
  3 10  2  0  0  0
  3 29  1  0  0  0
  4  9  2  0  0  0
  4 30  1  0  0  0
  5  6  1  0  0  0
  6 31  1  0  0  0
  6 32  1  0  0  0
  6 33  1  0  0  0
  7  8  1  0  0  0
  8 34  1  0  0  0
  8 35  1  0  0  0
  8 36  1  0  0  0
  9 10  1  0  0  0
  9 14  1  0  0  0
 10 11  1  0  0  0
 11 12  2  0  0  0
 12 13  1  0  0  0
 12 37  1  0  0  0
 13 14  2  0  0  0
 14 15  1  0  0  0
 15 16  1  0  0  0
 15 38  1  0  0  0
 16 17  2  0  0  0
 16 21  1  0  0  0
 17 18  1  0  0  0
 17 39  1  0  0  0
 18 19  2  0  0  0
 18 28  1  0  0  0
 19 20  1  0  0  0
 19 22  1  0  0  0
 20 21  2  0  0  0
 20 40  1  0  0  0
 21 41  1  0  0  0
 22 23  1  0  0  0
 22 42  1  0  0  0
 23 24  1  0  0  0
 23 25  2  0  0  0
 24 26  1  0  0  0
 26 27  1  0  0  0
 26 43  1  0  0  0
 26 44  1  0  0  0
 27 45  1  0  0  0
 27 46  1  0  0  0
 27 47  1  0  0  0
 28 48  1  0  0  0
 28 49  1  0  0  0
 28 50  1  0  0  0
M  END
> <s_m_entry_id>
442

> <s_m_entry_name>
pocket_pv.253

> <s_m_Source_Path>
/home/bortolaa/Project/GT/mario-master/docking/set505protein_struct_1_site_1_set505ligs_train

> <s_m_Source_File>
pocket_pv.maegz

> <i_m_Source_File_Index>
253

> <From>
www.bindingDB.org

> <BindingDB Reactant_set_id>
50432895

> <Ligand InChI>
InChI=1S/C20H22N4O4/c1-5-28-20(25)24-15-7-6-13(8-12(15)2)23-19-14-9-17(26-3)18(27-4)10-16(14)21-11-22-19/h6-11H,5H2,1-4H3,(H,24,25)(H,21,22,23)

> <Ligand InChI Key>
QEKKQKSAUFTIBW-UHFFFAOYSA-N

> <BindingDB MonomerID>
50380446

> <BindingDB Ligand Name>
CHEMBL2018756

> <Target Name Assigned by Curator or DataSource>
Epidermal growth factor receptor

> <Target Source Organism According to Curator or DataSource>
Homo sapiens

> <Ki (nM)>


> <IC50 (nM)>
900

> <Kd (nM)>


> <EC50 (nM)>


> <kon (M-1-s-1)>


> <koff (s-1)>


> <pH>


> <Temp C>


> <Curation/DataSource>
ChEMBL

> <Article DOI>
10.1016/j.bmc.2015.10.035

> <PubChem AID>


> <Patent Number>


> <Authors>
Ravez, S; Arsenlis, S; Barczyk, A; Dupont, A; Frédérick, R; Hesse, S; Kirsch, G; Depreux, P; Goossens, L

> <Institution>
Univ. Lille

> <Link to Ligand in BindingDB>
http://www.bindingdb.org/bind/chemsearch/marvin/MolStructure.jsp?monomerid=50380446

> <Link to Ligand-Target Pair in BindingDB>
http://www.bindingdb.org/jsp/dbsearch/PrimarySearch_ki.jsp?energyterm=kJ/mole&tag=r21&monomerid=50380446&enzyme=Epidermal+growth+factor+receptor&column=ki&startPg=0&Increment=50&submit=Search

> <Ligand HET ID in PDB>


> <PDB ID(s) for Ligand-Target Complex>


> <PubChem CID>
56954130

> <PubChem SID>
160859529

> <ChEBI ID of Ligand>


> <ChEMBL ID of Ligand>
CHEMBL2018756

> <DrugBank ID of Ligand>


> <IUPHAR_GRAC ID of Ligand>


> <KEGG ID of Ligand>


> <ZINC ID of Ligand>
ZINC84587178

> <Number of Protein Chains in Target (>
1

> <BindingDB Target Chain Sequence>
MRPSGTAGAALLALLAALCPASRALEEKKVCQGTSNKLTQLGTFEDHFLSLQRMFNNCEVVLGNLEITYVQRNYDLSFLKTIQEVAGYVLIALNTVERIPLENLQIIRGNMYYENSYALAVLSNYDANKTGLKELPMRNLQEILHGAVRFSNNPALCNVESIQWRDIVSSDFLSNMSMDFQNHLGSCQKCDPSCPNGSCWGAGEENCQKLTKIICAQQCSGRCRGKSPSDCCHNQCAAGCTGPRESDCLVCRKFRDEATCKDTCPPLMLYNPTTYQMDVNPEGKYSFGATCVKKCPRNYVVTDHGSCVRACGADSYEMEEDGVRKCKKCEGPCRKVCNGIGIGEFKDSLSINATNIKHFKNCTSISGDLHILPVAFRGDSFTHTPPLDPQELDILKTVKEITGFLLIQAWPENRTDLHAFENLEIIRGRTKQHGQFSLAVVSLNITSLGLRSLKEISDGDVIISGNKNLCYANTINWKKLFGTSGQKTKIISNRGENSCKATGQVCHALCSPEGCWGPEPRDCVSCRNVSRGRECVDKCNLLEGEPREFVENSECIQCHPECLPQAMNITCTGRGPDNCIQCAHYIDGPHCVKTCPAGVMGENNTLVWKYADAGHVCHLCHPNCTYGCTGPGLEGCPTNGPKIPSIATGMVGALLLLLVVALGIGLFMRRRHIVRKRTLRRLLQERELVEPLTPSGEAPNQALLRILKETEFKKIKVLGSGAFGTVYKGLWIPEGEKVKIPVAIKELREATSPKANKEILDEAYVMASVDNPHVCRLLGICLTSTVQLITQLMPFGCLLDYVREHKDNIGSQYLLNWCVQIAKGMNYLEDRRLVHRDLAARNVLVKTPQHVKITDFGLAKLLGAEEKEYHAEGGKVPIKWMALESILHRIYTHQSDVWSYGVTVWELMTFGSKPYDGIPASEISSILEKGERLPQPPICTIDVYMIMVKCWMIDADSRPKFRELIIEFSKMARDPQRYLVIQGDERMHLPSPTDSNFYRALMDEEDMDDVVDADEYLIPQQGFFSSPSTSRTPLLSSLSATSNNSTVACIDRNGLQSCPIKEDSFLQRYSSDPTGALTEDSIDDTFLPVPEYINQSVPKRPAGSVQNPVYHNQPLNPAPSRDPHYQDPHSTAVGNPEYLNTVQPTCVNSTFDSPAHWAQKGSHQISLDNPDYQQDFFPKEAKPNGIFKGSTAENAEYLRVAPQSSEFIGA

> <PDB ID(s) of Target Chain>
1IVO,1M14,1M17,1MOX,1XKK,1Z9I,2GS2,2GS6,2ITW,2ITX,2ITY,2J5E,2J5F,2J6M,2RF9,2RGP,3B2V,3BEL,3GOP,3POZ,3QWQ,3VJO,3W2O,3W2P,3W2Q,3W2R,3W2S,3W32,3W33,4G5J,4I23,4JQ7,4JQ8,4JR3,4JRV,4KRO,4LI5,4RJ4,4RJ5,4RJ6,4RJ7,4RJ8,4TKS,4UIP,4UV7,4WKQ,4WRG,4ZAU,5C8K,5C8M,5C8N,5CAL,5CAN,5CAO,5CAP,5CAQ,5CAS,5CAU,5CAV,5EDP,5EDQ,5EDR,5EM5,5EM6,5EM7,5EM8,5FED,5GNK,5HCX,5HCY,5HCZ,5HIB,5HIC,5UGB,5WB7,5WB8,5Y25,6S89,6S8A

> <UniProt (SwissProt) Recommended Name of Target Chain>
Epidermal growth factor receptor

> <UniProt (SwissProt) Entry Name of Target Chain>
EGFR_HUMAN

> <UniProt (SwissProt) Primary ID of Target Chain>
P00533

> <UniProt (SwissProt) Secondary ID(s) of Target Chain>
O00688,O00732,P06268,Q14225,Q68GS5,Q92795,Q9BZS2,Q9GZX1,Q9H2C9,Q9H3C9,Q9UMD7,Q9UMD8,Q9UMG5

> <UniProt (SwissProt) Alternative ID(s) of Target Chain>


> <UniProt (TrEMBL) Submitted Name of Target Chain>


> <UniProt (TrEMBL) Entry Name of Target Chain>


> <UniProt (TrEMBL) Primary ID of Target Chain>


> <UniProt (TrEMBL) Secondary ID(s) of Target Chain>


> <UniProt (TrEMBL) Alternative ID(s) of Target Chain>


> <training label>
6.04576

> <i_lp_mmshare_version>
54117

> <s_epik_input>
W0NIM11PYyhbY0hdMSljKE9bQ0gzXSlbY0hdYyhjMTIpbltjSF1uYzJbTkhdYzNbY0hdYyhbQ0gzXSljKFtjSF1bY0hdMylbTkhdQyg9TylPW0NIMl1bQ0gzXQ==

> <s_epik_cmdline>
J2VwaWtfcHl0aG9uJywgJy1waHQnLCAnMC4xJywgJy1waCcsICc3LjQnLCAnLXRuJywgJzgnLCAnLW1hJywgJzIwMCcsICctaW1hZScsICc8aW5maWxlLm1hZT4nLCAnLW9tYWUnLCAnPG91dGZpbGUubWFlPic=

> <r_lp_tautomer_probability>
1

> <r_epik_Ionization_Penalty>
  0.0006

> <r_epik_Ionization_Penalty_Charging>
  0.0000

> <r_epik_Ionization_Penalty_Neutral>
  0.0006

> <r_epik_State_Penalty>
  0.0000

> <r_epik_Charging_Adjusted_Penalty>
0

> <i_epik_Tot_Q>
0

> <i_epik_Tot_abs_Q>
0

> <i_f3d_flags>
0

> <s_lp_Force_Field>
OPLS_2005

> <r_lp_Energy>
28.771153

> <b_lp_Chiralities_Consistent>
1

> <s_lp_Variant>
BindingDB_50380446_mol_1-1

> <s_i_glide_gridfile>
struct_1_site_1

> <i_i_glide_lignum>
72

> <i_i_glide_rotatable_bonds>
8

> <r_i_docking_score>
-5.95841720338423

> <r_i_glide_ligand_efficiency>
-0.21280061440658

> <r_i_glide_ligand_efficiency_sa>
-0.646187998197642

> <r_i_glide_ligand_efficiency_ln>
-1.37537763727208

> <r_i_glide_gscore>
-5.95841720338423

> <r_i_glide_lipo>
-2.67886283041417

> <r_i_glide_hbond>
-0.0450474281129837

> <r_i_glide_metal>
0

> <r_i_glide_rewards>
-1.39273827970624

> <r_i_glide_evdw>
-42.4316444396973

> <r_i_glide_ecoul>
-2.56140804290771

> <r_i_glide_erotb>
0.664024763270178

> <r_i_glide_esite>
0

> <r_i_glide_emodel>
-34.3364226578917

> <r_i_glide_energy>
-44.993052482605

> <r_i_glide_einternal>
1.09763288497925

> <i_i_glide_confnum>
48

> <i_i_glide_posenum>
131

> <r_i_glide_eff_state_penalty>
0

> <PMID>
26526740

> <s_epik_Chemistry_Notes>
This compound has an ester and may undergo hydrolysis at high or low pH.

> <r_glide_shape_similarity>
0.726414382457733

> <s_m_subgroup_title>
505 training

> <s_m_subgroupid>
pocket_pv

> <b_m_subgroup_collapsed>
0

$$$$
BindingDB_50380449_mol_1
                    3D
 Schrodinger Suite 2021-2.
 53 55  0  0  1  0            999 V2000
   26.3900    1.7221   52.7050 C   0  0  0  0  0  0
   27.3526    0.9989   53.4440 C   0  0  0  0  0  0
   26.9262   -0.0244   54.3215 C   0  0  0  0  0  0
   25.0137    1.3701   52.8006 C   0  0  0  0  0  0
   26.8770    2.7337   51.8983 O   0  0  0  0  0  0
   25.9356    3.5712   51.2286 C   0  0  0  0  0  0
   28.6748    1.3542   53.2774 O   0  0  0  0  0  0
   29.5960    0.9117   54.2646 C   0  0  0  0  0  0
   24.5920    0.3319   53.6708 C   0  0  0  0  0  0
   25.5546   -0.3410   54.4708 C   0  0  0  0  0  0
   25.1679   -1.2663   55.3806 N   0  0  0  0  0  0
   23.8721   -1.5753   55.4630 C   0  0  0  0  0  0
   22.9075   -1.0513   54.7212 N   0  0  0  0  0  0
   23.2414   -0.0956   53.8230 C   0  0  0  0  0  0
   22.2237    0.4723   53.0356 N   0  0  0  0  0  0
   20.8705    0.1238   52.8812 C   0  0  0  0  0  0
   20.2034   -0.8902   53.6179 C   0  0  0  0  0  0
   18.8490   -1.1914   53.3841 C   0  0  0  0  0  0
   18.1087   -0.4252   52.4480 C   0  0  0  0  0  0
   18.7696    0.5771   51.6912 C   0  0  0  0  0  0
   20.1391    0.8379   51.9029 C   0  0  0  0  0  0
   16.7257   -0.7123   52.2952 N   0  0  0  0  0  0
   15.7072    0.2149   52.1542 C   0  0  0  0  0  0
   14.5473   -0.3991   52.4827 O   0  0  0  0  0  0
   15.8187    1.3848   51.7787 O   0  0  0  0  0  0
   13.3025    0.2856   52.3693 C   0  0  0  0  0  0
   12.8274    0.8427   53.7259 C   0  0  0  0  0  0
   12.2977   -0.2485   54.6762 C   0  0  0  0  0  0
   18.2101   -2.3444   54.1519 C   0  0  0  0  0  0
   27.6437   -0.5645   54.9167 H   0  0  0  0  0  0
   24.2771    1.8948   52.2100 H   0  0  0  0  0  0
   26.4737    4.3608   50.7097 H   0  0  0  0  0  0
   25.3638    3.0224   50.4838 H   0  0  0  0  0  0
   25.2503    4.0508   51.9280 H   0  0  0  0  0  0
   30.5484    1.4323   54.1730 H   0  0  0  0  0  0
   29.2202    1.1421   55.2589 H   0  0  0  0  0  0
   29.7947   -0.1541   54.1905 H   0  0  0  0  0  0
   23.5854   -2.3364   56.1777 H   0  0  0  0  0  0
   22.5359    1.2161   52.4282 H   0  0  0  0  0  0
   20.6791   -1.4946   54.3640 H   0  0  0  0  0  0
   18.2325    1.1401   50.9412 H   0  0  0  0  0  0
   20.6213    1.6059   51.3149 H   0  0  0  0  0  0
   16.4071   -1.6135   52.6235 H   0  0  0  0  0  0
   12.5562   -0.4108   51.9867 H   0  0  0  0  0  0
   13.3695    1.0938   51.6392 H   0  0  0  0  0  0
   12.0279    1.5631   53.5432 H   0  0  0  0  0  0
   13.6289    1.4076   54.1945 H   0  0  0  0  0  0
   11.8881    0.1942   55.5860 H   0  0  0  0  0  0
   13.0885   -0.9424   54.9582 H   0  0  0  0  0  0
   11.4942   -0.8180   54.2067 H   0  0  0  0  0  0
   18.8479   -2.7040   54.9612 H   0  0  0  0  0  0
   17.2600   -2.0292   54.5782 H   0  0  0  0  0  0
   18.0122   -3.1773   53.4741 H   0  0  0  0  0  0
  1  2  2  0  0  0
  1  4  1  0  0  0
  1  5  1  0  0  0
  2  3  1  0  0  0
  2  7  1  0  0  0
  3 10  2  0  0  0
  3 30  1  0  0  0
  4  9  2  0  0  0
  4 31  1  0  0  0
  5  6  1  0  0  0
  6 32  1  0  0  0
  6 33  1  0  0  0
  6 34  1  0  0  0
  7  8  1  0  0  0
  8 35  1  0  0  0
  8 36  1  0  0  0
  8 37  1  0  0  0
  9 10  1  0  0  0
  9 14  1  0  0  0
 10 11  1  0  0  0
 11 12  2  0  0  0
 12 13  1  0  0  0
 12 38  1  0  0  0
 13 14  2  0  0  0
 14 15  1  0  0  0
 15 16  1  0  0  0
 15 39  1  0  0  0
 16 17  2  0  0  0
 16 21  1  0  0  0
 17 18  1  0  0  0
 17 40  1  0  0  0
 18 19  2  0  0  0
 18 29  1  0  0  0
 19 20  1  0  0  0
 19 22  1  0  0  0
 20 21  2  0  0  0
 20 41  1  0  0  0
 21 42  1  0  0  0
 22 23  1  0  0  0
 22 43  1  0  0  0
 23 24  1  0  0  0
 23 25  2  0  0  0
 24 26  1  0  0  0
 26 27  1  0  0  0
 26 44  1  0  0  0
 26 45  1  0  0  0
 27 28  1  0  0  0
 27 46  1  0  0  0
 27 47  1  0  0  0
 28 48  1  0  0  0
 28 49  1  0  0  0
 28 50  1  0  0  0
 29 51  1  0  0  0
 29 52  1  0  0  0
 29 53  1  0  0  0
M  END
> <s_m_entry_id>
443

> <s_m_entry_name>
pocket_pv.254

> <s_m_Source_Path>
/home/bortolaa/Project/GT/mario-master/docking/set505protein_struct_1_site_1_set505ligs_train

> <s_m_Source_File>
pocket_pv.maegz

> <i_m_Source_File_Index>
254

> <From>
www.bindingDB.org

> <BindingDB Reactant_set_id>
50927745

> <Ligand InChI>
InChI=1S/C21H24N4O4/c1-5-8-29-21(26)25-16-7-6-14(9-13(16)2)24-20-15-10-18(27-3)19(28-4)11-17(15)22-12-23-20/h6-7,9-12H,5,8H2,1-4H3,(H,25,26)(H,22,23,24)

> <Ligand InChI Key>
YUHAHDWXHHCLRS-UHFFFAOYSA-N

> <BindingDB MonomerID>
50380449

> <BindingDB Ligand Name>
CHEMBL2018757

> <Target Name Assigned by Curator or DataSource>
Epidermal growth factor receptor

> <Target Source Organism According to Curator or DataSource>
Homo sapiens

> <Ki (nM)>


> <IC50 (nM)>
900

> <Kd (nM)>


> <EC50 (nM)>


> <kon (M-1-s-1)>


> <koff (s-1)>


> <pH>


> <Temp C>


> <Curation/DataSource>
ChEMBL

> <Article DOI>
10.1021/jm2013453

> <PubChem AID>


> <Patent Number>


> <Authors>
Garofalo, A; Farce, A; Ravez, S; Lemoine, A; Six, P; Chavatte, P; Goossens, L; Depreux, P

> <Institution>
Univ. Lille Nord de France

> <Link to Ligand in BindingDB>
http://www.bindingdb.org/bind/chemsearch/marvin/MolStructure.jsp?monomerid=50380449

> <Link to Ligand-Target Pair in BindingDB>
http://www.bindingdb.org/jsp/dbsearch/PrimarySearch_ki.jsp?energyterm=kJ/mole&tag=r21&monomerid=50380449&enzyme=Epidermal+growth+factor+receptor&column=ki&startPg=0&Increment=50&submit=Search

> <Ligand HET ID in PDB>


> <PDB ID(s) for Ligand-Target Complex>


> <PubChem CID>
56954131

> <PubChem SID>
160859532

> <ChEBI ID of Ligand>


> <ChEMBL ID of Ligand>
CHEMBL2018757

> <DrugBank ID of Ligand>


> <IUPHAR_GRAC ID of Ligand>


> <KEGG ID of Ligand>


> <ZINC ID of Ligand>
ZINC84587181

> <Number of Protein Chains in Target (>
1

> <BindingDB Target Chain Sequence>
MRPSGTAGAALLALLAALCPASRALEEKKVCQGTSNKLTQLGTFEDHFLSLQRMFNNCEVVLGNLEITYVQRNYDLSFLKTIQEVAGYVLIALNTVERIPLENLQIIRGNMYYENSYALAVLSNYDANKTGLKELPMRNLQEILHGAVRFSNNPALCNVESIQWRDIVSSDFLSNMSMDFQNHLGSCQKCDPSCPNGSCWGAGEENCQKLTKIICAQQCSGRCRGKSPSDCCHNQCAAGCTGPRESDCLVCRKFRDEATCKDTCPPLMLYNPTTYQMDVNPEGKYSFGATCVKKCPRNYVVTDHGSCVRACGADSYEMEEDGVRKCKKCEGPCRKVCNGIGIGEFKDSLSINATNIKHFKNCTSISGDLHILPVAFRGDSFTHTPPLDPQELDILKTVKEITGFLLIQAWPENRTDLHAFENLEIIRGRTKQHGQFSLAVVSLNITSLGLRSLKEISDGDVIISGNKNLCYANTINWKKLFGTSGQKTKIISNRGENSCKATGQVCHALCSPEGCWGPEPRDCVSCRNVSRGRECVDKCNLLEGEPREFVENSECIQCHPECLPQAMNITCTGRGPDNCIQCAHYIDGPHCVKTCPAGVMGENNTLVWKYADAGHVCHLCHPNCTYGCTGPGLEGCPTNGPKIPSIATGMVGALLLLLVVALGIGLFMRRRHIVRKRTLRRLLQERELVEPLTPSGEAPNQALLRILKETEFKKIKVLGSGAFGTVYKGLWIPEGEKVKIPVAIKELREATSPKANKEILDEAYVMASVDNPHVCRLLGICLTSTVQLITQLMPFGCLLDYVREHKDNIGSQYLLNWCVQIAKGMNYLEDRRLVHRDLAARNVLVKTPQHVKITDFGLAKLLGAEEKEYHAEGGKVPIKWMALESILHRIYTHQSDVWSYGVTVWELMTFGSKPYDGIPASEISSILEKGERLPQPPICTIDVYMIMVKCWMIDADSRPKFRELIIEFSKMARDPQRYLVIQGDERMHLPSPTDSNFYRALMDEEDMDDVVDADEYLIPQQGFFSSPSTSRTPLLSSLSATSNNSTVACIDRNGLQSCPIKEDSFLQRYSSDPTGALTEDSIDDTFLPVPEYINQSVPKRPAGSVQNPVYHNQPLNPAPSRDPHYQDPHSTAVGNPEYLNTVQPTCVNSTFDSPAHWAQKGSHQISLDNPDYQQDFFPKEAKPNGIFKGSTAENAEYLRVAPQSSEFIGA

> <PDB ID(s) of Target Chain>
1IVO,1M14,1M17,1MOX,1XKK,1Z9I,2GS2,2GS6,2ITW,2ITX,2ITY,2J5E,2J5F,2J6M,2RF9,2RGP,3B2V,3BEL,3GOP,3POZ,3QWQ,3VJO,3W2O,3W2P,3W2Q,3W2R,3W2S,3W32,3W33,4G5J,4I23,4JQ7,4JQ8,4JR3,4JRV,4KRO,4LI5,4RJ4,4RJ5,4RJ6,4RJ7,4RJ8,4TKS,4UIP,4UV7,4WKQ,4WRG,4ZAU,5C8K,5C8M,5C8N,5CAL,5CAN,5CAO,5CAP,5CAQ,5CAS,5CAU,5CAV,5EDP,5EDQ,5EDR,5EM5,5EM6,5EM7,5EM8,5FED,5GNK,5HCX,5HCY,5HCZ,5HIB,5HIC,5UGB,5WB7,5WB8,5Y25,6S89,6S8A

> <UniProt (SwissProt) Recommended Name of Target Chain>
Epidermal growth factor receptor

> <UniProt (SwissProt) Entry Name of Target Chain>
EGFR_HUMAN

> <UniProt (SwissProt) Primary ID of Target Chain>
P00533

> <UniProt (SwissProt) Secondary ID(s) of Target Chain>
O00688,O00732,P06268,Q14225,Q68GS5,Q92795,Q9BZS2,Q9GZX1,Q9H2C9,Q9H3C9,Q9UMD7,Q9UMD8,Q9UMG5

> <UniProt (SwissProt) Alternative ID(s) of Target Chain>


> <UniProt (TrEMBL) Submitted Name of Target Chain>


> <UniProt (TrEMBL) Entry Name of Target Chain>


> <UniProt (TrEMBL) Primary ID of Target Chain>


> <UniProt (TrEMBL) Secondary ID(s) of Target Chain>


> <UniProt (TrEMBL) Alternative ID(s) of Target Chain>


> <training label>
6.04576

> <i_lp_mmshare_version>
54117

> <s_epik_input>
W0NIM11PYyhbY0hdMSljKE9bQ0gzXSlbY0hdYyhjMTIpbltjSF1uYzJbTkhdYzNbY0hdYyhbQ0gzXSljKFtjSF1bY0hdMylbTkhdQyg9TylPW0NIMl1bQ0gyXVtDSDNd

> <s_epik_cmdline>
J2VwaWtfcHl0aG9uJywgJy1waHQnLCAnMC4xJywgJy1waCcsICc3LjQnLCAnLXRuJywgJzgnLCAnLW1hJywgJzIwMCcsICctaW1hZScsICc8aW5maWxlLm1hZT4nLCAnLW9tYWUnLCAnPG91dGZpbGUubWFlPic=

> <r_lp_tautomer_probability>
1

> <r_epik_Ionization_Penalty>
  0.0006

> <r_epik_Ionization_Penalty_Charging>
  0.0000

> <r_epik_Ionization_Penalty_Neutral>
  0.0006

> <r_epik_State_Penalty>
  0.0000

> <r_epik_Charging_Adjusted_Penalty>
0

> <i_epik_Tot_Q>
0

> <i_epik_Tot_abs_Q>
0

> <i_f3d_flags>
0

> <s_lp_Force_Field>
OPLS_2005

> <r_lp_Energy>
26.931953

> <b_lp_Chiralities_Consistent>
1

> <s_lp_Variant>
BindingDB_50380449_mol_1-1

> <s_i_glide_gridfile>
struct_1_site_1

> <i_i_glide_lignum>
73

> <i_i_glide_rotatable_bonds>
9

> <r_i_docking_score>
-5.94983791475929

> <r_i_glide_ligand_efficiency>
-0.205166824646872

> <r_i_glide_ligand_efficiency_sa>
-0.630337486727612

> <r_i_glide_ligand_efficiency_ln>
-1.3623620076082

> <r_i_glide_gscore>
-5.94983791475929

> <r_i_glide_lipo>
-2.71089699230997

> <r_i_glide_hbond>
-0.0833055985601256

> <r_i_glide_metal>
0

> <r_i_glide_rewards>
-1.27780443648844

> <r_i_glide_evdw>
-42.6755905151367

> <r_i_glide_ecoul>
-3.27313876152039

> <r_i_glide_erotb>
0.746919452584144

> <r_i_glide_esite>
0

> <r_i_glide_emodel>
-33.5170095024558

> <r_i_glide_energy>
-45.9487292766571

> <r_i_glide_einternal>
1.65680146217346

> <i_i_glide_confnum>
139

> <i_i_glide_posenum>
9

> <r_i_glide_eff_state_penalty>
0

> <PMID>
22229669

> <s_epik_Chemistry_Notes>
This compound has an ester and may undergo hydrolysis at high or low pH.

> <r_glide_shape_similarity>
0.713109314441681

> <s_m_subgroup_title>
505 training

> <s_m_subgroupid>
pocket_pv

> <b_m_subgroup_collapsed>
0

$$$$
BindingDB_50117940
                    3D
 Schrodinger Suite 2021-2.
 57 60  0  0  1  0            999 V2000
   20.1168    0.1519   52.5329 C   0  0  0  0  0  0
   19.4637    0.8003   51.4612 C   0  0  0  0  0  0
   19.4677   -0.6961   53.3444 N   0  0  0  0  0  0
   27.1427   -0.7903   53.6899 N   0  0  0  0  0  0
   18.0568    0.6072   51.3626 C   0  0  0  0  0  0
   26.1503    0.1965   53.7948 C   0  0  0  0  0  0
   17.4149   -0.2202   52.2282 N   0  0  0  0  0  0
   20.1595    1.6117   50.5328 C   0  0  0  0  0  0
   18.1686   -0.8669   53.1318 C   0  0  0  0  0  0
   28.3624   -0.3049   53.4744 C   0  0  0  0  0  0
   17.3671    1.3105   50.3463 C   0  0  0  0  0  0
   28.3844    1.4597   53.3779 S   0  0  0  0  0  0
   26.6453    1.4664   53.5683 C   0  0  0  0  0  0
   21.4558    0.4398   52.7808 N   0  0  0  0  0  0
   19.4661    2.2822   49.4981 C   0  0  0  0  0  0
   18.0606    2.1546   49.4199 C   0  0  0  0  0  0
   24.7802   -0.2365   54.1188 C   0  0  0  0  0  0
   22.3921   -0.1486   53.6240 C   0  0  0  0  0  0
   23.7066    0.3026   53.3972 C   0  0  0  0  0  0
   20.0769    3.0949   48.5600 O   0  0  0  0  0  0
   17.4490    2.8968   48.4256 O   0  0  0  0  0  0
   17.5064   -1.8478   54.0890 C   0  0  0  0  0  0
   24.5129   -1.2155   55.1137 C   0  0  0  0  0  0
   29.5694   -1.1835   53.3959 C   0  0  0  0  0  0
   23.1942   -1.6570   55.3708 C   0  0  0  0  0  0
   22.1278   -1.1279   54.6200 C   0  0  0  0  0  0
   21.4519    3.4504   48.7136 C   0  0  0  0  0  0
   16.0448    3.1505   48.5016 C   0  0  0  0  0  0
   16.5235   -2.8144   53.3920 C   0  0  0  0  0  0
   15.7102    4.1638   49.6156 C   0  0  0  0  0  0
   22.4045    2.3920   48.1116 C   0  0  0  0  0  0
   21.2272    1.7097   50.6075 H   0  0  0  0  0  0
   16.2998    1.1739   50.2940 H   0  0  0  0  0  0
   26.1125    2.4057   53.5697 H   0  0  0  0  0  0
   21.8369    1.1500   52.1762 H   0  0  0  0  0  0
   23.9043    1.0400   52.6307 H   0  0  0  0  0  0
   18.2867   -2.4632   54.5373 H   0  0  0  0  0  0
   17.0928   -1.3037   54.9406 H   0  0  0  0  0  0
   25.3249   -1.6435   55.6839 H   0  0  0  0  0  0
   29.2777   -2.2195   53.2430 H   0  0  0  0  0  0
   30.2111   -0.8767   52.5751 H   0  0  0  0  0  0
   30.1528   -1.1102   54.3103 H   0  0  0  0  0  0
   23.0186   -2.3967   56.1342 H   0  0  0  0  0  0
   21.1421   -1.4907   54.8514 H   0  0  0  0  0  0
   21.7019    3.6696   49.7503 H   0  0  0  0  0  0
   21.5978    4.3900   48.1778 H   0  0  0  0  0  0
   15.7507    3.5834   47.5437 H   0  0  0  0  0  0
   15.4658    2.2317   48.5970 H   0  0  0  0  0  0
   16.1443   -3.5471   54.1034 H   0  0  0  0  0  0
   15.6683   -2.2757   52.9757 H   0  0  0  0  0  0
   17.0107   -3.3622   52.5879 H   0  0  0  0  0  0
   14.6413    4.3946   49.6267 H   0  0  0  0  0  0
   15.9705    3.7808   50.6031 H   0  0  0  0  0  0
   16.2524    5.1022   49.4660 H   0  0  0  0  0  0
   23.4460    2.6815   48.2822 H   0  0  0  0  0  0
   22.2530    2.3094   47.0350 H   0  0  0  0  0  0
   22.2663    1.4028   48.5524 H   0  0  0  0  0  0
  1  2  1  0  0  0
  1  3  2  0  0  0
  1 14  1  0  0  0
  2  5  1  0  0  0
  2  8  2  0  0  0
  3  9  1  0  0  0
  4  6  1  0  0  0
  4 10  2  0  0  0
  5  7  1  0  0  0
  5 11  2  0  0  0
  6 13  2  0  0  0
  6 17  1  0  0  0
  7  9  2  0  0  0
  8 15  1  0  0  0
  8 32  1  0  0  0
  9 22  1  0  0  0
 10 12  1  0  0  0
 10 24  1  0  0  0
 11 16  1  0  0  0
 11 33  1  0  0  0
 12 13  1  0  0  0
 13 34  1  0  0  0
 14 18  1  0  0  0
 14 35  1  0  0  0
 15 16  2  0  0  0
 15 20  1  0  0  0
 16 21  1  0  0  0
 17 19  1  0  0  0
 17 23  2  0  0  0
 18 19  2  0  0  0
 18 26  1  0  0  0
 19 36  1  0  0  0
 20 27  1  0  0  0
 21 28  1  0  0  0
 22 29  1  0  0  0
 22 37  1  0  0  0
 22 38  1  0  0  0
 23 25  1  0  0  0
 23 39  1  0  0  0
 24 40  1  0  0  0
 24 41  1  0  0  0
 24 42  1  0  0  0
 25 26  2  0  0  0
 25 43  1  0  0  0
 26 44  1  0  0  0
 27 31  1  0  0  0
 27 45  1  0  0  0
 27 46  1  0  0  0
 28 30  1  0  0  0
 28 47  1  0  0  0
 28 48  1  0  0  0
 29 49  1  0  0  0
 29 50  1  0  0  0
 29 51  1  0  0  0
 30 52  1  0  0  0
 30 53  1  0  0  0
 30 54  1  0  0  0
 31 55  1  0  0  0
 31 56  1  0  0  0
 31 57  1  0  0  0
M  END
> <s_m_entry_id>
444

> <s_m_entry_name>
pocket_pv.255

> <s_m_Source_Path>
/home/bortolaa/Project/GT/mario-master/docking/set505protein_struct_1_site_1_set505ligs_train

> <s_m_Source_File>
pocket_pv.maegz

> <i_m_Source_File_Index>
255

> <From>
www.bindingDB.org

> <BindingDB Reactant_set_id>
50212955

> <Ligand InChI>
InChI=1S/C24H26N4O2S/c1-5-23-27-19-13-22(30-7-3)21(29-6-2)12-18(19)24(28-23)26-17-10-8-9-16(11-17)20-14-31-15(4)25-20/h8-14H,5-7H2,1-4H3,(H,26,27,28)

> <Ligand InChI Key>
JXZOGXXITGINEQ-UHFFFAOYSA-N

> <BindingDB MonomerID>
50117940

> <BindingDB Ligand Name>
(6,7-Diethoxy-2-ethyl-quinazolin-4-yl)-[3-(2-methyl-thiazol-4-yl)-phenyl]-amine::CHEMBL126483

> <Target Name Assigned by Curator or DataSource>
Epidermal growth factor receptor

> <Target Source Organism According to Curator or DataSource>
Homo sapiens

> <Ki (nM)>


> <IC50 (nM)>
9300

> <Kd (nM)>


> <EC50 (nM)>


> <kon (M-1-s-1)>


> <koff (s-1)>


> <pH>


> <Temp C>


> <Curation/DataSource>
ChEMBL

> <Article DOI>
10.1021/jm010496a

> <PubChem AID>


> <Patent Number>


> <Authors>
Wright, SW; Carlo, AA; Carty, MD; Danley, DE; Hageman, DL; Karam, GA; Levy, CB; Mansour, MN; Mathiowetz, AM; McClure, LD; Nestor, NB; McPherson, RK; Pandit, J; Pustilnik, LR; Schulte, GK; Soeller, WC; Treadway, JL; Wang, IK; Bauer, PH

> <Institution>
Pfizer Central Research

> <Link to Ligand in BindingDB>
http://www.bindingdb.org/bind/chemsearch/marvin/MolStructure.jsp?monomerid=50117940

> <Link to Ligand-Target Pair in BindingDB>
http://www.bindingdb.org/jsp/dbsearch/PrimarySearch_ki.jsp?energyterm=kJ/mole&tag=r21&monomerid=50117940&enzyme=Epidermal+growth+factor+receptor&column=ki&startPg=0&Increment=50&submit=Search

> <Ligand HET ID in PDB>


> <PDB ID(s) for Ligand-Target Complex>


> <PubChem CID>
10127271

> <PubChem SID>
104011344

> <ChEBI ID of Ligand>


> <ChEMBL ID of Ligand>
CHEMBL126483

> <DrugBank ID of Ligand>


> <IUPHAR_GRAC ID of Ligand>


> <KEGG ID of Ligand>


> <ZINC ID of Ligand>
ZINC13490817

> <Number of Protein Chains in Target (>
1

> <BindingDB Target Chain Sequence>
MRPSGTAGAALLALLAALCPASRALEEKKVCQGTSNKLTQLGTFEDHFLSLQRMFNNCEVVLGNLEITYVQRNYDLSFLKTIQEVAGYVLIALNTVERIPLENLQIIRGNMYYENSYALAVLSNYDANKTGLKELPMRNLQEILHGAVRFSNNPALCNVESIQWRDIVSSDFLSNMSMDFQNHLGSCQKCDPSCPNGSCWGAGEENCQKLTKIICAQQCSGRCRGKSPSDCCHNQCAAGCTGPRESDCLVCRKFRDEATCKDTCPPLMLYNPTTYQMDVNPEGKYSFGATCVKKCPRNYVVTDHGSCVRACGADSYEMEEDGVRKCKKCEGPCRKVCNGIGIGEFKDSLSINATNIKHFKNCTSISGDLHILPVAFRGDSFTHTPPLDPQELDILKTVKEITGFLLIQAWPENRTDLHAFENLEIIRGRTKQHGQFSLAVVSLNITSLGLRSLKEISDGDVIISGNKNLCYANTINWKKLFGTSGQKTKIISNRGENSCKATGQVCHALCSPEGCWGPEPRDCVSCRNVSRGRECVDKCNLLEGEPREFVENSECIQCHPECLPQAMNITCTGRGPDNCIQCAHYIDGPHCVKTCPAGVMGENNTLVWKYADAGHVCHLCHPNCTYGCTGPGLEGCPTNGPKIPSIATGMVGALLLLLVVALGIGLFMRRRHIVRKRTLRRLLQERELVEPLTPSGEAPNQALLRILKETEFKKIKVLGSGAFGTVYKGLWIPEGEKVKIPVAIKELREATSPKANKEILDEAYVMASVDNPHVCRLLGICLTSTVQLITQLMPFGCLLDYVREHKDNIGSQYLLNWCVQIAKGMNYLEDRRLVHRDLAARNVLVKTPQHVKITDFGLAKLLGAEEKEYHAEGGKVPIKWMALESILHRIYTHQSDVWSYGVTVWELMTFGSKPYDGIPASEISSILEKGERLPQPPICTIDVYMIMVKCWMIDADSRPKFRELIIEFSKMARDPQRYLVIQGDERMHLPSPTDSNFYRALMDEEDMDDVVDADEYLIPQQGFFSSPSTSRTPLLSSLSATSNNSTVACIDRNGLQSCPIKEDSFLQRYSSDPTGALTEDSIDDTFLPVPEYINQSVPKRPAGSVQNPVYHNQPLNPAPSRDPHYQDPHSTAVGNPEYLNTVQPTCVNSTFDSPAHWAQKGSHQISLDNPDYQQDFFPKEAKPNGIFKGSTAENAEYLRVAPQSSEFIGA

> <PDB ID(s) of Target Chain>
1IVO,1M14,1M17,1MOX,1XKK,1Z9I,2GS2,2GS6,2ITW,2ITX,2ITY,2J5E,2J5F,2J6M,2RF9,2RGP,3B2V,3BEL,3GOP,3POZ,3QWQ,3VJO,3W2O,3W2P,3W2Q,3W2R,3W2S,3W32,3W33,4G5J,4I23,4JQ7,4JQ8,4JR3,4JRV,4KRO,4LI5,4RJ4,4RJ5,4RJ6,4RJ7,4RJ8,4TKS,4UIP,4UV7,4WKQ,4WRG,4ZAU,5C8K,5C8M,5C8N,5CAL,5CAN,5CAO,5CAP,5CAQ,5CAS,5CAU,5CAV,5EDP,5EDQ,5EDR,5EM5,5EM6,5EM7,5EM8,5FED,5GNK,5HCX,5HCY,5HCZ,5HIB,5HIC,5UGB,5WB7,5WB8,5Y25,6S89,6S8A

> <UniProt (SwissProt) Recommended Name of Target Chain>
Epidermal growth factor receptor

> <UniProt (SwissProt) Entry Name of Target Chain>
EGFR_HUMAN

> <UniProt (SwissProt) Primary ID of Target Chain>
P00533

> <UniProt (SwissProt) Secondary ID(s) of Target Chain>
O00688,O00732,P06268,Q14225,Q68GS5,Q92795,Q9BZS2,Q9GZX1,Q9H2C9,Q9H3C9,Q9UMD7,Q9UMD8,Q9UMG5

> <UniProt (SwissProt) Alternative ID(s) of Target Chain>


> <UniProt (TrEMBL) Submitted Name of Target Chain>


> <UniProt (TrEMBL) Entry Name of Target Chain>


> <UniProt (TrEMBL) Primary ID of Target Chain>


> <UniProt (TrEMBL) Secondary ID(s) of Target Chain>


> <UniProt (TrEMBL) Alternative ID(s) of Target Chain>


> <training label>
5.03152

> <i_lp_mmshare_version>
54117

> <s_epik_input>
W2NIXTFzYyhbQ0gzXSluYzEtYzJbY0hdYyhbY0hdW2NIXVtjSF0yKVtOSF1jM25jKFtDSDJdW0NIM10pbmMoYzM0KVtjSF1jKE9bQ0gyXVtDSDNdKWMoW2NIXTQpT1tDSDJdW0NIM10=

> <s_epik_cmdline>
J2VwaWtfcHl0aG9uJywgJy1waHQnLCAnMC4xJywgJy1waCcsICc3LjQnLCAnLXRuJywgJzgnLCAnLW1hJywgJzIwMCcsICctaW1hZScsICc8aW5maWxlLm1hZT4nLCAnLW9tYWUnLCAnPG91dGZpbGUubWFlPic=

> <r_lp_tautomer_probability>
1

> <r_epik_Ionization_Penalty>
  0.0075

> <r_epik_Ionization_Penalty_Charging>
  0.0000

> <r_epik_Ionization_Penalty_Neutral>
  0.0075

> <r_epik_State_Penalty>
  0.0000

> <r_epik_Charging_Adjusted_Penalty>
0

> <i_epik_Tot_Q>
0

> <i_epik_Tot_abs_Q>
0

> <i_f3d_flags>
0

> <s_lp_Force_Field>
OPLS_2005

> <r_lp_Energy>
16.248884

> <b_lp_Chiralities_Consistent>
1

> <s_lp_Variant>
BindingDB_50117940-1

> <s_i_glide_gridfile>
struct_1_site_1

> <i_i_glide_lignum>
25

> <i_i_glide_rotatable_bonds>
8

> <r_i_docking_score>
-5.9424119353634

> <r_i_glide_ligand_efficiency>
-0.191690707592368

> <r_i_glide_ligand_efficiency_sa>
-0.602173479384594

> <r_i_glide_ligand_efficiency_ln>
-1.34019600447931

> <r_i_glide_gscore>
-5.9424119353634

> <r_i_glide_lipo>
-3.31203133469857

> <r_i_glide_hbond>
0

> <r_i_glide_metal>
0

> <r_i_glide_rewards>
-0.736449633757442

> <r_i_glide_evdw>
-46.9064254760742

> <r_i_glide_ecoul>
-0.506400227546692

> <r_i_glide_erotb>
0.527350341028331

> <r_i_glide_esite>
0

> <r_i_glide_emodel>
-34.6677402233707

> <r_i_glide_energy>
-47.4128257036209

> <r_i_glide_einternal>
5.02973890304565

> <i_i_glide_confnum>
45

> <i_i_glide_posenum>
221

> <r_i_glide_eff_state_penalty>
0

> <PMID>
12190310

> <r_glide_shape_similarity>
0.721184253692627

> <s_m_subgroup_title>
505 training

> <s_m_subgroupid>
pocket_pv

> <b_m_subgroup_collapsed>
0

$$$$
BindingDB_50370942_mol_1
                    3D
 Schrodinger Suite 2021-2.
 39 41  0  0  1  0            999 V2000
   26.8801   -0.4483   56.9071 C   0  0  0  0  0  0
   26.9251   -0.4652   55.4781 O   0  0  0  0  0  0
   25.6972   -0.4416   54.8636 C   0  0  0  0  0  0
   24.6362   -1.2273   55.3517 C   0  0  0  0  0  0
   23.3545   -1.1021   54.8321 C   0  0  0  0  0  0
   22.3715   -1.8378   55.3702 N   0  0  0  0  0  0
   21.1714   -1.6815   54.8546 C   0  0  0  0  0  0
   20.8447   -0.8953   53.8616 N   0  0  0  0  0  0
   21.7905   -0.1219   53.3254 C   0  0  0  0  0  0
   21.3989    0.7311   52.2941 N   0  0  0  0  0  0
   20.1521    0.8891   51.6594 C   0  0  0  0  0  0
   20.1491    1.6048   50.4457 C   0  0  0  0  0  0
   18.9472    1.8383   49.7591 C   0  0  0  0  0  0
   18.9520    2.5562   48.6144 F   0  0  0  0  0  0
   17.7363    1.3261   50.2616 C   0  0  0  0  0  0
   17.7133    0.5925   51.4657 C   0  0  0  0  0  0
   18.9198    0.4014   52.1628 C   0  0  0  0  0  0
   16.4043    0.0248   51.9986 C   0  0  0  0  0  0
   16.5907   -0.6734   53.1122 F   0  0  0  0  0  0
   15.8707   -0.7854   51.0933 F   0  0  0  0  0  0
   15.5300    0.9892   52.2583 F   0  0  0  0  0  0
   23.1264   -0.1864   53.7775 C   0  0  0  0  0  0
   24.1971    0.5741   53.2448 C   0  0  0  0  0  0
   25.5010    0.4334   53.7817 C   0  0  0  0  0  0
   26.6054    1.1290   53.3600 O   0  0  0  0  0  0
   26.3818    2.4322   52.8738 C   0  0  0  0  0  0
   27.8877   -0.4257   57.3065 H   0  0  0  0  0  0
   26.3625    0.4450   57.2601 H   0  0  0  0  0  0
   26.4024   -1.3128   57.3669 H   0  0  0  0  0  0
   24.7804   -1.9339   56.1566 H   0  0  0  0  0  0
   20.3773   -2.2849   55.2686 H   0  0  0  0  0  0
   22.1571    1.2510   51.8898 H   0  0  0  0  0  0
   21.0700    1.9908   50.0337 H   0  0  0  0  0  0
   16.8138    1.4979   49.7217 H   0  0  0  0  0  0
   18.8334   -0.1049   53.1046 H   0  0  0  0  0  0
   24.0243    1.2555   52.4284 H   0  0  0  0  0  0
   27.3342    2.9657   52.8446 H   0  0  0  0  0  0
   25.9792    2.4122   51.8592 H   0  0  0  0  0  0
   25.7088    3.0088   53.5122 H   0  0  0  0  0  0
  1  2  1  0  0  0
  1 27  1  0  0  0
  1 28  1  0  0  0
  1 29  1  0  0  0
  2  3  1  0  0  0
  3  4  1  0  0  0
  3 24  2  0  0  0
  4  5  2  0  0  0
  4 30  1  0  0  0
  5  6  1  0  0  0
  5 22  1  0  0  0
  6  7  2  0  0  0
  7  8  1  0  0  0
  7 31  1  0  0  0
  8  9  2  0  0  0
  9 10  1  0  0  0
  9 22  1  0  0  0
 10 11  1  0  0  0
 10 32  1  0  0  0
 11 12  2  0  0  0
 11 17  1  0  0  0
 12 13  1  0  0  0
 12 33  1  0  0  0
 13 14  1  0  0  0
 13 15  2  0  0  0
 15 16  1  0  0  0
 15 34  1  0  0  0
 16 17  2  0  0  0
 16 18  1  0  0  0
 17 35  1  0  0  0
 18 19  1  0  0  0
 18 20  1  0  0  0
 18 21  1  0  0  0
 22 23  2  0  0  0
 23 24  1  0  0  0
 23 36  1  0  0  0
 24 25  1  0  0  0
 25 26  1  0  0  0
 26 37  1  0  0  0
 26 38  1  0  0  0
 26 39  1  0  0  0
M  END
> <s_m_entry_id>
445

> <s_m_entry_name>
pocket_pv.256

> <s_m_Source_Path>
/home/bortolaa/Project/GT/mario-master/docking/set505protein_struct_1_site_1_set505ligs_train

> <s_m_Source_File>
pocket_pv.maegz

> <i_m_Source_File_Index>
256

> <From>
www.bindingDB.org

> <BindingDB Reactant_set_id>
50844862

> <Ligand InChI>
InChI=1S/C17H13F4N3O2/c1-25-14-6-12-13(7-15(14)26-2)22-8-23-16(12)24-11-4-9(17(19,20)21)3-10(18)5-11/h3-8H,1-2H3,(H,22,23,24)

> <Ligand InChI Key>
OADSFSCZBUDKTO-UHFFFAOYSA-N

> <BindingDB MonomerID>
50370942

> <BindingDB Ligand Name>
CHEMBL1203936

> <Target Name Assigned by Curator or DataSource>
Epidermal growth factor receptor

> <Target Source Organism According to Curator or DataSource>
Homo sapiens

> <Ki (nM)>


> <Kd (nM)>


> <EC50 (nM)>


> <kon (M-1-s-1)>


> <koff (s-1)>


> <pH>


> <Temp C>


> <Curation/DataSource>
ChEMBL

> <Article DOI>
10.1021/jm050607w

> <PubChem AID>


> <Patent Number>


> <Authors>
VanBrocklin, HF; Lim, JK; Coffing, SL; Hom, DL; Negash, K; Ono, MY; Gilmore, JL; Bryant, I; Riese, DJ

> <Institution>
Lawrence Berkeley National Laboratory

> <Link to Ligand in BindingDB>
http://www.bindingdb.org/bind/chemsearch/marvin/MolStructure.jsp?monomerid=50370942

> <Link to Ligand-Target Pair in BindingDB>
http://www.bindingdb.org/jsp/dbsearch/PrimarySearch_ki.jsp?energyterm=kJ/mole&tag=r21&monomerid=50370942&enzyme=Epidermal+growth+factor+receptor&column=ki&startPg=0&Increment=50&submit=Search

> <Ligand HET ID in PDB>


> <PDB ID(s) for Ligand-Target Complex>


> <PubChem CID>
11538667

> <PubChem SID>
160850043

> <ChEBI ID of Ligand>


> <ChEMBL ID of Ligand>
CHEMBL1203936

> <DrugBank ID of Ligand>


> <IUPHAR_GRAC ID of Ligand>


> <KEGG ID of Ligand>


> <ZINC ID of Ligand>
ZINC13676221

> <Number of Protein Chains in Target (>
1

> <BindingDB Target Chain Sequence>
MRPSGTAGAALLALLAALCPASRALEEKKVCQGTSNKLTQLGTFEDHFLSLQRMFNNCEVVLGNLEITYVQRNYDLSFLKTIQEVAGYVLIALNTVERIPLENLQIIRGNMYYENSYALAVLSNYDANKTGLKELPMRNLQEILHGAVRFSNNPALCNVESIQWRDIVSSDFLSNMSMDFQNHLGSCQKCDPSCPNGSCWGAGEENCQKLTKIICAQQCSGRCRGKSPSDCCHNQCAAGCTGPRESDCLVCRKFRDEATCKDTCPPLMLYNPTTYQMDVNPEGKYSFGATCVKKCPRNYVVTDHGSCVRACGADSYEMEEDGVRKCKKCEGPCRKVCNGIGIGEFKDSLSINATNIKHFKNCTSISGDLHILPVAFRGDSFTHTPPLDPQELDILKTVKEITGFLLIQAWPENRTDLHAFENLEIIRGRTKQHGQFSLAVVSLNITSLGLRSLKEISDGDVIISGNKNLCYANTINWKKLFGTSGQKTKIISNRGENSCKATGQVCHALCSPEGCWGPEPRDCVSCRNVSRGRECVDKCNLLEGEPREFVENSECIQCHPECLPQAMNITCTGRGPDNCIQCAHYIDGPHCVKTCPAGVMGENNTLVWKYADAGHVCHLCHPNCTYGCTGPGLEGCPTNGPKIPSIATGMVGALLLLLVVALGIGLFMRRRHIVRKRTLRRLLQERELVEPLTPSGEAPNQALLRILKETEFKKIKVLGSGAFGTVYKGLWIPEGEKVKIPVAIKELREATSPKANKEILDEAYVMASVDNPHVCRLLGICLTSTVQLITQLMPFGCLLDYVREHKDNIGSQYLLNWCVQIAKGMNYLEDRRLVHRDLAARNVLVKTPQHVKITDFGLAKLLGAEEKEYHAEGGKVPIKWMALESILHRIYTHQSDVWSYGVTVWELMTFGSKPYDGIPASEISSILEKGERLPQPPICTIDVYMIMVKCWMIDADSRPKFRELIIEFSKMARDPQRYLVIQGDERMHLPSPTDSNFYRALMDEEDMDDVVDADEYLIPQQGFFSSPSTSRTPLLSSLSATSNNSTVACIDRNGLQSCPIKEDSFLQRYSSDPTGALTEDSIDDTFLPVPEYINQSVPKRPAGSVQNPVYHNQPLNPAPSRDPHYQDPHSTAVGNPEYLNTVQPTCVNSTFDSPAHWAQKGSHQISLDNPDYQQDFFPKEAKPNGIFKGSTAENAEYLRVAPQSSEFIGA

> <PDB ID(s) of Target Chain>
1IVO,1M14,1M17,1MOX,1XKK,1Z9I,2GS2,2GS6,2ITW,2ITX,2ITY,2J5E,2J5F,2J6M,2RF9,2RGP,3B2V,3BEL,3GOP,3POZ,3QWQ,3VJO,3W2O,3W2P,3W2Q,3W2R,3W2S,3W32,3W33,4G5J,4I23,4JQ7,4JQ8,4JR3,4JRV,4KRO,4LI5,4RJ4,4RJ5,4RJ6,4RJ7,4RJ8,4TKS,4UIP,4UV7,4WKQ,4WRG,4ZAU,5C8K,5C8M,5C8N,5CAL,5CAN,5CAO,5CAP,5CAQ,5CAS,5CAU,5CAV,5EDP,5EDQ,5EDR,5EM5,5EM6,5EM7,5EM8,5FED,5GNK,5HCX,5HCY,5HCZ,5HIB,5HIC,5UGB,5WB7,5WB8,5Y25,6S89,6S8A

> <UniProt (SwissProt) Recommended Name of Target Chain>
Epidermal growth factor receptor

> <UniProt (SwissProt) Entry Name of Target Chain>
EGFR_HUMAN

> <UniProt (SwissProt) Primary ID of Target Chain>
P00533

> <UniProt (SwissProt) Secondary ID(s) of Target Chain>
O00688,O00732,P06268,Q14225,Q68GS5,Q92795,Q9BZS2,Q9GZX1,Q9H2C9,Q9H3C9,Q9UMD7,Q9UMD8,Q9UMG5

> <UniProt (SwissProt) Alternative ID(s) of Target Chain>


> <UniProt (TrEMBL) Submitted Name of Target Chain>


> <UniProt (TrEMBL) Entry Name of Target Chain>


> <UniProt (TrEMBL) Primary ID of Target Chain>


> <UniProt (TrEMBL) Secondary ID(s) of Target Chain>


> <UniProt (TrEMBL) Alternative ID(s) of Target Chain>


> <training label>
7.69897

> <i_lp_mmshare_version>
54117

> <s_epik_input>
W0NIM11PYyhbY0hdMSljKE9bQ0gzXSlbY0hdYyhjMTIpYyhuW2NIXW4yKVtOSF1jM1tjSF1jKEYpW2NIXWMoW2NIXTMpQyhGKShGKUY=

> <s_epik_cmdline>
J2VwaWtfcHl0aG9uJywgJy1waHQnLCAnMC4xJywgJy1waCcsICc3LjQnLCAnLXRuJywgJzgnLCAnLW1hJywgJzIwMCcsICctaW1hZScsICc8aW5maWxlLm1hZT4nLCAnLW9tYWUnLCAnPG91dGZpbGUubWFlPic=

> <r_lp_tautomer_probability>
1

> <r_epik_Ionization_Penalty>
  0.0006

> <r_epik_Ionization_Penalty_Charging>
  0.0000

> <r_epik_Ionization_Penalty_Neutral>
  0.0006

> <r_epik_State_Penalty>
  0.0000

> <r_epik_Charging_Adjusted_Penalty>
0

> <i_epik_Tot_Q>
0

> <i_epik_Tot_abs_Q>
0

> <i_f3d_flags>
0

> <s_lp_Force_Field>
OPLS_2005

> <r_lp_Energy>
19.24723

> <b_lp_Chiralities_Consistent>
1

> <s_lp_Variant>
BindingDB_50370942_mol_1-1

> <s_i_glide_gridfile>
struct_1_site_1

> <i_i_glide_lignum>
208

> <i_i_glide_rotatable_bonds>
5

> <r_i_docking_score>
-5.90177618861328

> <r_i_glide_ligand_efficiency>
-0.226991391869741

> <r_i_glide_ligand_efficiency_sa>
-0.672461105246111

> <r_i_glide_ligand_efficiency_ln>
-1.38601277258865

> <r_i_glide_gscore>
-5.90177618861328

> <r_i_glide_lipo>
-2.10754554265982

> <r_i_glide_hbond>
-0.543886725560713

> <r_i_glide_metal>
0

> <r_i_glide_rewards>
-1.39748293241646

> <r_i_glide_evdw>
-35.5700607299805

> <r_i_glide_ecoul>
-2.3989577293396

> <r_i_glide_erotb>
0.285485707923679

> <r_i_glide_esite>
0

> <r_i_glide_emodel>
-19.1395941082189

> <r_i_glide_energy>
-37.9690184593201

> <r_i_glide_einternal>
2.05841088294983

> <i_i_glide_confnum>
1

> <i_i_glide_posenum>
224

> <r_i_glide_eff_state_penalty>
0

> <IC50 (nM)>
20

> <PMID>
16279804

> <r_glide_shape_similarity>
0.681440949440002

> <s_m_subgroup_title>
505 training

> <s_m_subgroupid>
pocket_pv

> <b_m_subgroup_collapsed>
0

$$$$
6-alkoxy-4-anilinoquinazoline
                    3D
 Schrodinger Suite 2021-2.
 46 49  0  0  1  0            999 V2000
   29.0528   -0.2793   53.4042 C   0  0  0  0  0  0
   29.2136    1.1155   53.3931 C   0  0  0  0  0  0
   28.1058    1.9747   53.3991 C   0  0  0  0  0  0
   26.8220    1.4362   53.4465 C   0  0  0  0  0  0
   26.6566    0.0389   53.4951 C   0  0  0  0  0  0
   27.7715   -0.8184   53.4471 C   0  0  0  0  0  0
   25.2898   -0.5530   53.6633 C   0  0  0  0  0  0
   24.3276    0.4632   53.7734 O   0  0  0  0  0  0
   23.0311    0.0715   53.7826 C   0  0  0  0  0  0
   22.1219    1.0268   53.3354 C   0  0  0  0  0  0
   22.5574   -1.1805   54.2230 C   0  0  0  0  0  0
   21.1969   -1.4894   54.0812 C   0  0  0  0  0  0
   20.3137   -0.5625   53.5129 C   0  0  0  0  0  0
   20.7605    0.7397   53.2665 C   0  0  0  0  0  0
   19.0064   -0.9694   53.2412 N   0  0  0  0  0  0
   17.9857   -0.3482   52.5129 C   0  0  0  0  0  0
   15.7130   -0.0788   52.4253 C   0  0  0  0  0  0
   18.1398    0.5333   51.4157 C   0  0  0  0  0  0
   16.9521    1.1401   50.9369 C   0  0  0  0  0  0
   19.3656    0.8059   50.7641 C   0  0  0  0  0  0
   18.2769    2.4354   49.3262 C   0  0  0  0  0  0
   17.0423    2.0972   49.9056 C   0  0  0  0  0  0
   16.7651   -0.6668   52.9771 N   0  0  0  0  0  0
   15.7500    0.8221   51.4586 N   0  0  0  0  0  0
   19.4498    1.7826   49.7414 C   0  0  0  0  0  0
   20.6068    2.1551   49.1073 O   0  0  0  0  0  0
   21.8104    1.5199   49.5176 C   0  0  0  0  0  0
   29.9155   -0.9225   53.3931 H   0  0  0  0  0  0
   30.2145    1.5274   53.3778 H   0  0  0  0  0  0
   28.2474    3.0511   53.3988 H   0  0  0  0  0  0
   25.9797    2.1159   53.4861 H   0  0  0  0  0  0
   27.6345   -1.8891   53.4827 H   0  0  0  0  0  0
   25.0694   -1.2138   52.8222 H   0  0  0  0  0  0
   25.3065   -1.1569   54.5774 H   0  0  0  0  0  0
   22.4783    2.0057   53.0531 H   0  0  0  0  0  0
   23.2251   -1.9384   54.6151 H   0  0  0  0  0  0
   20.8496   -2.4671   54.3538 H   0  0  0  0  0  0
   20.0742    1.5224   52.9719 H   0  0  0  0  0  0
   18.6711   -1.7009   53.8472 H   0  0  0  0  0  0
   14.7444   -0.3430   52.8261 H   0  0  0  0  0  0
   20.2426    0.2459   51.0408 H   0  0  0  0  0  0
   18.3183    3.1673   48.5334 H   0  0  0  0  0  0
   16.1415    2.5803   49.5619 H   0  0  0  0  0  0
   22.6323    1.8938   48.9043 H   0  0  0  0  0  0
   22.0392    1.7449   50.5570 H   0  0  0  0  0  0
   21.7696    0.4341   49.3755 H   0  0  0  0  0  0
  1  2  2  0  0  0
  1  6  1  0  0  0
  1 28  1  0  0  0
  2  3  1  0  0  0
  2 29  1  0  0  0
  3  4  2  0  0  0
  3 30  1  0  0  0
  4  5  1  0  0  0
  4 31  1  0  0  0
  5  6  2  0  0  0
  5  7  1  0  0  0
  6 32  1  0  0  0
  7  8  1  0  0  0
  7 33  1  0  0  0
  7 34  1  0  0  0
  8  9  1  0  0  0
  9 10  2  0  0  0
  9 11  1  0  0  0
 10 14  1  0  0  0
 10 35  1  0  0  0
 11 12  2  0  0  0
 11 36  1  0  0  0
 12 13  1  0  0  0
 12 37  1  0  0  0
 13 14  2  0  0  0
 13 15  1  0  0  0
 14 38  1  0  0  0
 15 16  1  0  0  0
 15 39  1  0  0  0
 16 18  2  0  0  0
 16 23  1  0  0  0
 17 23  2  0  0  0
 17 24  1  0  0  0
 17 40  1  0  0  0
 18 19  1  0  0  0
 18 20  1  0  0  0
 19 22  1  0  0  0
 19 24  2  0  0  0
 20 25  2  0  0  0
 20 41  1  0  0  0
 21 22  2  0  0  0
 21 25  1  0  0  0
 21 42  1  0  0  0
 22 43  1  0  0  0
 25 26  1  0  0  0
 26 27  1  0  0  0
 27 44  1  0  0  0
 27 45  1  0  0  0
 27 46  1  0  0  0
M  END
> <s_m_entry_id>
446

> <s_m_entry_name>
pocket_pv.257

> <s_m_Source_Path>
/home/bortolaa/Project/GT/mario-master/docking/set505protein_struct_1_site_1_set505ligs_train

> <s_m_Source_File>
pocket_pv.maegz

> <i_m_Source_File_Index>
257

> <From>
www.bindingDB.org

> <BindingDB Reactant_set_id>
8659

> <Ligand InChI>
InChI=1S/C22H19N3O2/c1-26-19-11-12-21-20(13-19)22(24-15-23-21)25-17-7-9-18(10-8-17)27-14-16-5-3-2-4-6-16/h2-13,15H,14H2,1H3,(H,23,24,25)

> <Ligand InChI Key>
RARTTYYZTRKYDS-UHFFFAOYSA-N

> <BindingDB MonomerID>
5451

> <BindingDB Ligand Name>
6-alkoxy-4-anilinoquinazoline 9a::N-[4-(benzyloxy)phenyl]-6-methoxyquinazolin-4-amine

> <Target Name Assigned by Curator or DataSource>
Epidermal growth factor receptor

> <Target Source Organism According to Curator or DataSource>
Homo sapiens

> <Ki (nM)>


> <Kd (nM)>


> <EC50 (nM)>


> <kon (M-1-s-1)>


> <koff (s-1)>


> <Curation/DataSource>
Curated from the literature by BindingDB

> <Article DOI>
10.1021/jm061320h

> <PubChem AID>


> <Patent Number>


> <Authors>
Gaul, MD; Guo, Y; Affleck, K; Cockerill, GS; Gilmer, TM; Griffin, RJ; Guntrip, S; Keith, BR; Knight, WB; Mullin, RJ; Murray, DM; Rusnak, DW; Smith, K; Tadepalli, S; Wood, ER; Lackey, K

> <Institution>
GlaxoSmithKline

> <Link to Ligand in BindingDB>
http://www.bindingdb.org/bind/chemsearch/marvin/MolStructure.jsp?monomerid=5451

> <Link to Ligand-Target Pair in BindingDB>
http://www.bindingdb.org/jsp/dbsearch/PrimarySearch_ki.jsp?energyterm=kJ/mole&tag=r21&monomerid=5451&enzyme=Epidermal+growth+factor+receptor&column=ki&startPg=0&Increment=50&submit=Search

> <Ligand HET ID in PDB>


> <PDB ID(s) for Ligand-Target Complex>


> <PubChem CID>
5329484

> <PubChem SID>
8035070

> <ChEBI ID of Ligand>


> <ChEMBL ID of Ligand>


> <DrugBank ID of Ligand>


> <IUPHAR_GRAC ID of Ligand>


> <KEGG ID of Ligand>


> <ZINC ID of Ligand>
ZINC13588397

> <Number of Protein Chains in Target (>
1

> <BindingDB Target Chain Sequence>
MRPSGTAGAALLALLAALCPASRALEEKKVCQGTSNKLTQLGTFEDHFLSLQRMFNNCEVVLGNLEITYVQRNYDLSFLKTIQEVAGYVLIALNTVERIPLENLQIIRGNMYYENSYALAVLSNYDANKTGLKELPMRNLQEILHGAVRFSNNPALCNVESIQWRDIVSSDFLSNMSMDFQNHLGSCQKCDPSCPNGSCWGAGEENCQKLTKIICAQQCSGRCRGKSPSDCCHNQCAAGCTGPRESDCLVCRKFRDEATCKDTCPPLMLYNPTTYQMDVNPEGKYSFGATCVKKCPRNYVVTDHGSCVRACGADSYEMEEDGVRKCKKCEGPCRKVCNGIGIGEFKDSLSINATNIKHFKNCTSISGDLHILPVAFRGDSFTHTPPLDPQELDILKTVKEITGFLLIQAWPENRTDLHAFENLEIIRGRTKQHGQFSLAVVSLNITSLGLRSLKEISDGDVIISGNKNLCYANTINWKKLFGTSGQKTKIISNRGENSCKATGQVCHALCSPEGCWGPEPRDCVSCRNVSRGRECVDKCNLLEGEPREFVENSECIQCHPECLPQAMNITCTGRGPDNCIQCAHYIDGPHCVKTCPAGVMGENNTLVWKYADAGHVCHLCHPNCTYGCTGPGLEGCPTNGPKIPSIATGMVGALLLLLVVALGIGLFMRRRHIVRKRTLRRLLQERELVEPLTPSGEAPNQALLRILKETEFKKIKVLGSGAFGTVYKGLWIPEGEKVKIPVAIKELREATSPKANKEILDEAYVMASVDNPHVCRLLGICLTSTVQLITQLMPFGCLLDYVREHKDNIGSQYLLNWCVQIAKGMNYLEDRRLVHRDLAARNVLVKTPQHVKITDFGLAKLLGAEEKEYHAEGGKVPIKWMALESILHRIYTHQSDVWSYGVTVWELMTFGSKPYDGIPASEISSILEKGERLPQPPICTIDVYMIMVKCWMIDADSRPKFRELIIEFSKMARDPQRYLVIQGDERMHLPSPTDSNFYRALMDEEDMDDVVDADEYLIPQQGFFSSPSTSRTPLLSSLSATSNNSTVACIDRNGLQSCPIKEDSFLQRYSSDPTGALTEDSIDDTFLPVPEYINQSVPKRPAGSVQNPVYHNQPLNPAPSRDPHYQDPHSTAVGNPEYLNTVQPTCVNSTFDSPAHWAQKGSHQISLDNPDYQQDFFPKEAKPNGIFKGSTAENAEYLRVAPQSSEFIGA

> <PDB ID(s) of Target Chain>
1IVO,1M14,1M17,1MOX,1XKK,1Z9I,2GS2,2GS6,2ITW,2ITX,2ITY,2J5E,2J5F,2J6M,2RF9,2RGP,3B2V,3BEL,3GOP,3POZ,3QWQ,3VJO,3W2O,3W2P,3W2Q,3W2R,3W2S,3W32,3W33,4G5J,4I23,4JQ7,4JQ8,4JR3,4JRV,4KRO,4LI5,4RJ4,4RJ5,4RJ6,4RJ7,4RJ8,4TKS,4UIP,4UV7,4WKQ,4WRG,4ZAU,5C8K,5C8M,5C8N,5CAL,5CAN,5CAO,5CAP,5CAQ,5CAS,5CAU,5CAV,5EDP,5EDQ,5EDR,5EM5,5EM6,5EM7,5EM8,5FED,5GNK,5HCX,5HCY,5HCZ,5HIB,5HIC,5UGB,5WB7,5WB8,5Y25,6S89,6S8A

> <UniProt (SwissProt) Recommended Name of Target Chain>
Epidermal growth factor receptor

> <UniProt (SwissProt) Entry Name of Target Chain>
EGFR_HUMAN

> <UniProt (SwissProt) Primary ID of Target Chain>
P00533

> <UniProt (SwissProt) Secondary ID(s) of Target Chain>
O00688,O00732,P06268,Q14225,Q68GS5,Q92795,Q9BZS2,Q9GZX1,Q9H2C9,Q9H3C9,Q9UMD7,Q9UMD8,Q9UMG5

> <UniProt (SwissProt) Alternative ID(s) of Target Chain>


> <UniProt (TrEMBL) Submitted Name of Target Chain>


> <UniProt (TrEMBL) Entry Name of Target Chain>


> <UniProt (TrEMBL) Primary ID of Target Chain>


> <UniProt (TrEMBL) Secondary ID(s) of Target Chain>


> <UniProt (TrEMBL) Alternative ID(s) of Target Chain>


> <training label>
7.16749

> <i_lp_mmshare_version>
54117

> <s_epik_input>
W2NIXTFbY0hdW2NIXVtjSF1bY0hdYzFbQ0gyXU9jMltjSF1bY0hdYyhbY0hdW2NIXTIpW05IXWMzbltjSF1uYyhjMzQpW2NIXVtjSF1jKFtjSF00KU9bQ0gzXQ==

> <s_epik_cmdline>
J2VwaWtfcHl0aG9uJywgJy1waHQnLCAnMC4xJywgJy1waCcsICc3LjQnLCAnLXRuJywgJzgnLCAnLW1hJywgJzIwMCcsICctaW1hZScsICc8aW5maWxlLm1hZT4nLCAnLW9tYWUnLCAnPG91dGZpbGUubWFlPic=

> <r_lp_tautomer_probability>
1

> <r_epik_Ionization_Penalty>
  0.0003

> <r_epik_Ionization_Penalty_Charging>
  0.0000

> <r_epik_Ionization_Penalty_Neutral>
  0.0003

> <r_epik_State_Penalty>
  0.0000

> <r_epik_Charging_Adjusted_Penalty>
0

> <i_epik_Tot_Q>
0

> <i_epik_Tot_abs_Q>
0

> <i_f3d_flags>
0

> <s_lp_Force_Field>
OPLS_2005

> <r_lp_Energy>
26.775569

> <b_lp_Chiralities_Consistent>
1

> <s_lp_Variant>
6-alkoxy-4-anilinoquinazoline-1

> <s_i_glide_gridfile>
struct_1_site_1

> <i_i_glide_lignum>
177

> <i_i_glide_rotatable_bonds>
6

> <r_i_docking_score>
-5.88544927340327

> <r_i_glide_ligand_efficiency>
-0.217979602718639

> <r_i_glide_ligand_efficiency_sa>
-0.653938807437493

> <r_i_glide_ligand_efficiency_ln>
-1.37003556163376

> <r_i_glide_gscore>
-5.88544927340327

> <r_i_glide_lipo>
-3.48824582873398

> <r_i_glide_hbond>
0

> <r_i_glide_metal>
0

> <r_i_glide_rewards>
-1.10616188772245

> <r_i_glide_evdw>
-39.1917343139648

> <r_i_glide_ecoul>
-0.538578152656555

> <r_i_glide_erotb>
0.749331881649888

> <r_i_glide_esite>
0

> <r_i_glide_emodel>
-29.0390550052886

> <r_i_glide_energy>
-39.7303124666214

> <r_i_glide_einternal>
9.15294742584229

> <i_i_glide_confnum>
52

> <i_i_glide_posenum>
279

> <r_i_glide_eff_state_penalty>
0

> <IC50 (nM)>
68

> <PMID>
12639547

> <Temp C>
23

> <r_glide_shape_similarity>
0.775402367115021

> <pH>
7.5

> <s_m_subgroup_title>
505 training

> <s_m_subgroupid>
pocket_pv

> <b_m_subgroup_collapsed>
0

$$$$
/home/bortolaa/Project/GT/mario-master/ligands/set505ligs_train.sdf:41
                    3D
 Schrodinger Suite 2021-2.
 62 66  0  0  1  0            999 V2000
   13.9387    0.1954   52.8059 C   0  0  0  0  0  0
   13.1206   -0.9511   52.9515 C   0  0  0  0  0  0
   13.7140   -2.2413   52.9698 C   0  0  0  0  0  0
   15.3425    0.0447   52.7032 C   0  0  0  0  0  0
   15.9261   -1.2366   52.8452 C   0  0  0  0  0  0
   15.1152   -2.3993   52.9704 C   0  0  0  0  0  0
   15.6730   -3.6226   53.1704 N   0  0  0  0  0  0
   16.9908   -3.6602   53.3744 C   0  0  0  0  0  0
   17.8440   -2.6395   53.2787 N   0  0  0  0  0  0
   17.3215   -1.4354   52.9474 C   0  0  0  0  0  0
   18.1774   -0.3937   52.5917 N   0  0  0  0  0  0
   19.5471   -0.2360   52.7930 C   0  0  0  0  0  0
   20.1622    0.7011   51.9496 C   0  0  0  0  0  0
   21.5121    1.0168   52.1245 C   0  0  0  0  0  0
   22.2652    0.3972   53.1388 C   0  0  0  0  0  0
   21.6680   -0.5784   53.9763 C   0  0  0  0  0  0
   20.3018   -0.8892   53.8022 C   0  0  0  0  0  0
   23.5821    0.8885   53.2727 N   0  0  0  0  0  0
   24.6647    0.2699   53.7398 C   0  0  0  0  0  0
   25.7602    1.0017   53.4608 N   0  0  0  0  0  0
   24.6474   -0.7884   54.3708 O   0  0  0  0  0  0
   27.1026    0.5674   53.4968 C   0  0  0  0  0  0
   27.4480   -0.7943   53.3500 C   0  0  0  0  0  0
   28.7884   -1.1958   53.4427 C   0  0  0  0  0  0
   29.7979   -0.2409   53.6660 C   0  0  0  0  0  0
   29.4629    1.1258   53.7746 C   0  0  0  0  0  0
   28.1157    1.5339   53.6700 C   0  0  0  0  0  0
   13.2989    1.4195   52.7951 O   0  0  0  0  0  0
   14.0805    2.6059   52.8610 C   0  0  0  0  0  0
   11.7640   -0.7341   53.1278 O   0  0  0  0  0  0
   10.8744   -1.8356   53.3483 C   0  0  0  0  0  0
   10.9424   -2.5022   54.7312 C   0  0  0  0  0  0
   10.0309   -3.5486   55.0226 C   0  0  0  0  0  0
   10.0568   -4.1985   56.2787 C   0  0  0  0  0  0
   11.0006   -3.8106   57.2556 C   0  0  0  0  0  0
   11.9139   -2.7700   56.9750 C   0  0  0  0  0  0
   11.8817   -2.1123   55.7238 C   0  0  0  0  0  0
   29.1702   -2.8667   53.3517 Cl  0  0  0  0  0  0
   13.1175   -3.1281   53.1014 H   0  0  0  0  0  0
   15.9721    0.9142   52.6123 H   0  0  0  0  0  0
   17.4167   -4.6287   53.5875 H   0  0  0  0  0  0
   17.7396    0.3355   52.0486 H   0  0  0  0  0  0
   19.5990    1.2080   51.1790 H   0  0  0  0  0  0
   21.9623    1.7626   51.4847 H   0  0  0  0  0  0
   22.2191   -1.0499   54.7758 H   0  0  0  0  0  0
   19.8379   -1.5898   54.4793 H   0  0  0  0  0  0
   23.7640    1.7473   52.7776 H   0  0  0  0  0  0
   25.6255    1.9481   53.1337 H   0  0  0  0  0  0
   26.6958   -1.5525   53.1896 H   0  0  0  0  0  0
   30.8276   -0.5513   53.7633 H   0  0  0  0  0  0
   30.2430    1.8543   53.9492 H   0  0  0  0  0  0
   27.8663    2.5815   53.7676 H   0  0  0  0  0  0
   13.4170    3.4692   52.8940 H   0  0  0  0  0  0
   14.6879    2.6287   53.7644 H   0  0  0  0  0  0
   14.7204    2.7169   51.9851 H   0  0  0  0  0  0
    9.8632   -1.4471   53.2284 H   0  0  0  0  0  0
   10.9933   -2.5849   52.5658 H   0  0  0  0  0  0
    9.3074   -3.8538   54.2799 H   0  0  0  0  0  0
    9.3539   -4.9917   56.4918 H   0  0  0  0  0  0
   11.0215   -4.3034   58.2171 H   0  0  0  0  0  0
   12.6357   -2.4704   57.7214 H   0  0  0  0  0  0
   12.5925   -1.3203   55.5354 H   0  0  0  0  0  0
  1  2  2  0  0  0
  1  4  1  0  0  0
  1 28  1  0  0  0
  2  3  1  0  0  0
  2 30  1  0  0  0
  3  6  2  0  0  0
  3 39  1  0  0  0
  4  5  2  0  0  0
  4 40  1  0  0  0
  5  6  1  0  0  0
  5 10  1  0  0  0
  6  7  1  0  0  0
  7  8  2  0  0  0
  8  9  1  0  0  0
  8 41  1  0  0  0
  9 10  2  0  0  0
 10 11  1  0  0  0
 11 12  1  0  0  0
 11 42  1  0  0  0
 12 13  2  0  0  0
 12 17  1  0  0  0
 13 14  1  0  0  0
 13 43  1  0  0  0
 14 15  2  0  0  0
 14 44  1  0  0  0
 15 16  1  0  0  0
 15 18  1  0  0  0
 16 17  2  0  0  0
 16 45  1  0  0  0
 17 46  1  0  0  0
 18 19  1  0  0  0
 18 47  1  0  0  0
 19 20  1  0  0  0
 19 21  2  0  0  0
 20 22  1  0  0  0
 20 48  1  0  0  0
 22 23  2  0  0  0
 22 27  1  0  0  0
 23 24  1  0  0  0
 23 49  1  0  0  0
 24 25  2  0  0  0
 24 38  1  0  0  0
 25 26  1  0  0  0
 25 50  1  0  0  0
 26 27  2  0  0  0
 26 51  1  0  0  0
 27 52  1  0  0  0
 28 29  1  0  0  0
 29 53  1  0  0  0
 29 54  1  0  0  0
 29 55  1  0  0  0
 30 31  1  0  0  0
 31 32  1  0  0  0
 31 56  1  0  0  0
 31 57  1  0  0  0
 32 33  2  0  0  0
 32 37  1  0  0  0
 33 34  1  0  0  0
 33 58  1  0  0  0
 34 35  2  0  0  0
 34 59  1  0  0  0
 35 36  1  0  0  0
 35 60  1  0  0  0
 36 37  2  0  0  0
 36 61  1  0  0  0
 37 62  1  0  0  0
M  END
> <s_m_entry_id>
447

> <s_m_entry_name>
pocket_pv.258

> <s_m_Source_Path>
/home/bortolaa/Project/GT/mario-master/docking/set505protein_struct_1_site_1_set505ligs_train

> <s_m_Source_File>
pocket_pv.maegz

> <i_m_Source_File_Index>
258

> <From>
www.bindingDB.org

> <BindingDB Reactant_set_id>
50553085

> <Ligand InChI>
InChI=1S/C29H24ClN5O3/c1-37-26-15-24-25(16-27(26)38-17-19-6-3-2-4-7-19)31-18-32-28(24)33-21-10-12-22(13-11-21)34-29(36)35-23-9-5-8-20(30)14-23/h2-16,18H,17H2,1H3,(H,31,32,33)(H2,34,35,36)

> <Ligand InChI Key>
HYVNDSYVYRZXAP-UHFFFAOYSA-N

> <BindingDB MonomerID>
50210693

> <BindingDB Ligand Name>
CHEMBL3894623

> <Target Name Assigned by Curator or DataSource>
Epidermal growth factor receptor

> <Target Source Organism According to Curator or DataSource>
Homo sapiens

> <Ki (nM)>


> <IC50 (nM)>
4649

> <Kd (nM)>


> <EC50 (nM)>


> <kon (M-1-s-1)>


> <koff (s-1)>


> <pH>


> <Temp C>


> <Curation/DataSource>
ChEMBL

> <Article DOI>
10.1016/j.ejmech.2016.09.039

> <PubChem AID>


> <Patent Number>


> <Authors>
Zhang, HQ; Gong, FH; Ye, JQ; Zhang, C; Yue, XH; Li, CG; Xu, YG; Sun, LP

> <Institution>
China Pharmaceutical University

> <Link to Ligand in BindingDB>
http://www.bindingdb.org/bind/chemsearch/marvin/MolStructure.jsp?monomerid=50210693

> <Link to Ligand-Target Pair in BindingDB>
http://www.bindingdb.org/jsp/dbsearch/PrimarySearch_ki.jsp?energyterm=kJ/mole&tag=r21&monomerid=50210693&enzyme=Epidermal+growth+factor+receptor&column=ki&startPg=0&Increment=50&submit=Search

> <Ligand HET ID in PDB>


> <PDB ID(s) for Ligand-Target Complex>


> <PubChem CID>
134136322

> <PubChem SID>
375982697

> <ChEBI ID of Ligand>


> <ChEMBL ID of Ligand>
CHEMBL3894623

> <DrugBank ID of Ligand>


> <IUPHAR_GRAC ID of Ligand>


> <KEGG ID of Ligand>


> <ZINC ID of Ligand>


> <Number of Protein Chains in Target (>
1

> <BindingDB Target Chain Sequence>
MRPSGTAGAALLALLAALCPASRALEEKKVCQGTSNKLTQLGTFEDHFLSLQRMFNNCEVVLGNLEITYVQRNYDLSFLKTIQEVAGYVLIALNTVERIPLENLQIIRGNMYYENSYALAVLSNYDANKTGLKELPMRNLQEILHGAVRFSNNPALCNVESIQWRDIVSSDFLSNMSMDFQNHLGSCQKCDPSCPNGSCWGAGEENCQKLTKIICAQQCSGRCRGKSPSDCCHNQCAAGCTGPRESDCLVCRKFRDEATCKDTCPPLMLYNPTTYQMDVNPEGKYSFGATCVKKCPRNYVVTDHGSCVRACGADSYEMEEDGVRKCKKCEGPCRKVCNGIGIGEFKDSLSINATNIKHFKNCTSISGDLHILPVAFRGDSFTHTPPLDPQELDILKTVKEITGFLLIQAWPENRTDLHAFENLEIIRGRTKQHGQFSLAVVSLNITSLGLRSLKEISDGDVIISGNKNLCYANTINWKKLFGTSGQKTKIISNRGENSCKATGQVCHALCSPEGCWGPEPRDCVSCRNVSRGRECVDKCNLLEGEPREFVENSECIQCHPECLPQAMNITCTGRGPDNCIQCAHYIDGPHCVKTCPAGVMGENNTLVWKYADAGHVCHLCHPNCTYGCTGPGLEGCPTNGPKIPSIATGMVGALLLLLVVALGIGLFMRRRHIVRKRTLRRLLQERELVEPLTPSGEAPNQALLRILKETEFKKIKVLGSGAFGTVYKGLWIPEGEKVKIPVAIKELREATSPKANKEILDEAYVMASVDNPHVCRLLGICLTSTVQLITQLMPFGCLLDYVREHKDNIGSQYLLNWCVQIAKGMNYLEDRRLVHRDLAARNVLVKTPQHVKITDFGLAKLLGAEEKEYHAEGGKVPIKWMALESILHRIYTHQSDVWSYGVTVWELMTFGSKPYDGIPASEISSILEKGERLPQPPICTIDVYMIMVKCWMIDADSRPKFRELIIEFSKMARDPQRYLVIQGDERMHLPSPTDSNFYRALMDEEDMDDVVDADEYLIPQQGFFSSPSTSRTPLLSSLSATSNNSTVACIDRNGLQSCPIKEDSFLQRYSSDPTGALTEDSIDDTFLPVPEYINQSVPKRPAGSVQNPVYHNQPLNPAPSRDPHYQDPHSTAVGNPEYLNTVQPTCVNSTFDSPAHWAQKGSHQISLDNPDYQQDFFPKEAKPNGIFKGSTAENAEYLRVAPQSSEFIGA

> <PDB ID(s) of Target Chain>
1IVO,1M14,1M17,1MOX,1XKK,1Z9I,2GS2,2GS6,2ITW,2ITX,2ITY,2J5E,2J5F,2J6M,2RF9,2RGP,3B2V,3BEL,3GOP,3POZ,3QWQ,3VJO,3W2O,3W2P,3W2Q,3W2R,3W2S,3W32,3W33,4G5J,4I23,4JQ7,4JQ8,4JR3,4JRV,4KRO,4LI5,4RJ4,4RJ5,4RJ6,4RJ7,4RJ8,4TKS,4UIP,4UV7,4WKQ,4WRG,4ZAU,5C8K,5C8M,5C8N,5CAL,5CAN,5CAO,5CAP,5CAQ,5CAS,5CAU,5CAV,5EDP,5EDQ,5EDR,5EM5,5EM6,5EM7,5EM8,5FED,5GNK,5HCX,5HCY,5HCZ,5HIB,5HIC,5UGB,5WB7,5WB8,5Y25,6S89,6S8A

> <UniProt (SwissProt) Recommended Name of Target Chain>
Epidermal growth factor receptor

> <UniProt (SwissProt) Entry Name of Target Chain>
EGFR_HUMAN

> <UniProt (SwissProt) Primary ID of Target Chain>
P00533

> <UniProt (SwissProt) Secondary ID(s) of Target Chain>
O00688,O00732,P06268,Q14225,Q68GS5,Q92795,Q9BZS2,Q9GZX1,Q9H2C9,Q9H3C9,Q9UMD7,Q9UMD8,Q9UMG5

> <UniProt (SwissProt) Alternative ID(s) of Target Chain>


> <UniProt (TrEMBL) Submitted Name of Target Chain>


> <UniProt (TrEMBL) Entry Name of Target Chain>


> <UniProt (TrEMBL) Primary ID of Target Chain>


> <UniProt (TrEMBL) Secondary ID(s) of Target Chain>


> <UniProt (TrEMBL) Alternative ID(s) of Target Chain>


> <training label>
5.33264

> <i_lp_mmshare_version>
54117

> <s_epik_input>
W2NIXTFbY0hdW2NIXVtjSF1bY0hdYzFbQ0gyXU9jKGMoW2NIXTIpT1tDSDNdKVtjSF1jKGMyMyluW2NIXW5jM1tOSF1jNFtjSF1bY0hdYyhbY0hdW2NIXTQpW05IXUMoPU8pW05IXWM1W2NIXWMoQ2wpW2NIXVtjSF1bY0hdNQ==

> <s_epik_cmdline>
J2VwaWtfcHl0aG9uJywgJy1waHQnLCAnMC4xJywgJy1waCcsICc3LjQnLCAnLXRuJywgJzgnLCAnLW1hJywgJzIwMCcsICctaW1hZScsICc8aW5maWxlLm1hZT4nLCAnLW9tYWUnLCAnPG91dGZpbGUubWFlPic=

> <r_lp_tautomer_probability>
1

> <r_epik_Ionization_Penalty>
  0.0011

> <r_epik_Ionization_Penalty_Charging>
  0.0000

> <r_epik_Ionization_Penalty_Neutral>
  0.0011

> <r_epik_State_Penalty>
  0.0000

> <r_epik_Charging_Adjusted_Penalty>
0

> <i_epik_Tot_Q>
0

> <i_epik_Tot_abs_Q>
0

> <i_f3d_flags>
0

> <s_lp_Force_Field>
OPLS_2005

> <r_lp_Energy>
43.600373

> <b_lp_Chiralities_Consistent>
1

> <s_lp_Variant>
/home/bortolaa/Project/GT/mario-master/ligands/set505ligs_train.sdf:41-1

> <s_i_glide_gridfile>
struct_1_site_1

> <i_i_glide_lignum>
41

> <i_i_glide_rotatable_bonds>
10

> <r_i_docking_score>
-5.86638241945655

> <r_i_glide_ligand_efficiency>
-0.154378484722541

> <r_i_glide_ligand_efficiency_sa>
-0.519016668346749

> <r_i_glide_ligand_efficiency_ln>
-1.26496462112149

> <r_i_glide_gscore>
-5.86638241945655

> <r_i_glide_lipo>
-3.35510323597802

> <r_i_glide_hbond>
0

> <r_i_glide_metal>
0

> <r_i_glide_rewards>
-0.333058597141268

> <r_i_glide_evdw>
-49.8874931335449

> <r_i_glide_ecoul>
-1.86081302165985

> <r_i_glide_erotb>
0.595276023588962

> <r_i_glide_esite>
0

> <r_i_glide_emodel>
-21.1687678693118

> <r_i_glide_energy>
-51.7483061552048

> <r_i_glide_einternal>
3.86391377449036

> <i_i_glide_confnum>
35

> <i_i_glide_posenum>
22

> <r_i_glide_eff_state_penalty>
0

> <PMID>
27688180

> <r_glide_shape_similarity>
0.523081183433533

> <s_m_subgroup_title>
505 training

> <s_m_subgroupid>
pocket_pv

> <b_m_subgroup_collapsed>
0

$$$$
BindingDB_50179510_mol_1
                    3D
 Schrodinger Suite 2021-2.
 49 53  0  0  1  0            999 V2000
   19.9655    2.5195   49.1436 C   0  0  0  0  0  0
   21.0826    1.8354   48.6038 C   0  0  0  0  0  0
   21.9984    2.5263   47.7743 C   0  0  0  0  0  0
   19.7378    3.8788   48.8225 C   0  0  0  0  0  0
   20.6533    4.5682   47.9911 C   0  0  0  0  0  0
   21.7933    3.8988   47.4731 C   0  0  0  0  0  0
   19.0233    1.7935   50.0712 C   0  0  0  0  0  0
   17.3677   -1.4062   53.5088 C   0  0  0  0  0  0
   16.8350   -0.5302   52.5454 C   0  0  0  0  0  0
   17.6168    0.3015   51.8346 N   0  0  0  0  0  0
   18.9604    0.3364   52.0650 C   0  0  0  0  0  0
   19.5900   -0.4661   53.0709 C   0  0  0  0  0  0
   18.7553   -1.3657   53.7743 C   0  0  0  0  0  0
   21.0225   -0.4467   53.4437 C   0  0  0  0  0  0
   21.8254    0.5448   52.9596 O   0  0  0  0  0  0
   23.0222    0.2397   53.5295 C   0  0  0  0  0  0
   23.0003   -0.8481   54.3081 N   0  0  0  0  0  0
   21.6851   -1.2893   54.2635 N   0  0  0  0  0  0
   24.0488    1.1279   53.1938 N   0  0  0  0  0  0
   19.6910    1.1951   51.2281 N   0  0  0  0  0  0
   25.4377    0.9362   53.2862 C   0  0  0  0  0  0
   25.9972   -0.3533   53.1527 C   0  0  0  0  0  0
   27.6939    1.8660   53.5536 C   0  0  0  0  0  0
   26.2983    2.0520   53.4445 C   0  0  0  0  0  0
   28.2423    0.5681   53.4506 C   0  0  0  0  0  0
   27.3906   -0.5405   53.2026 C   0  0  0  0  0  0
   27.8849   -1.8065   52.9814 O   0  0  0  0  0  0
   29.1797   -2.0418   53.5069 C   0  0  0  0  0  0
   30.1295   -0.8687   53.2316 C   0  0  0  0  0  0
   29.5977    0.4031   53.6083 O   0  0  0  0  0  0
   22.6791    4.5660   46.6847 F   0  0  0  0  0  0
   21.2424    0.7921   48.8310 H   0  0  0  0  0  0
   22.8614    2.0093   47.3808 H   0  0  0  0  0  0
   18.8788    4.3998   49.2236 H   0  0  0  0  0  0
   20.4893    5.6126   47.7564 H   0  0  0  0  0  0
   18.2558    2.4795   50.4273 H   0  0  0  0  0  0
   18.5202    1.0131   49.4958 H   0  0  0  0  0  0
   16.7263   -2.0774   54.0607 H   0  0  0  0  0  0
   15.7776   -0.5101   52.3323 H   0  0  0  0  0  0
   19.1552   -2.0123   54.5415 H   0  0  0  0  0  0
   23.7490    2.0114   52.8032 H   0  0  0  0  0  0
   20.7000    1.2509   51.3078 H   0  0  0  0  0  0
   25.3692   -1.2144   52.9779 H   0  0  0  0  0  0
   28.3421    2.7127   53.7213 H   0  0  0  0  0  0
   25.8938    3.0501   53.5238 H   0  0  0  0  0  0
   29.5813   -2.9670   53.0911 H   0  0  0  0  0  0
   29.0874   -2.1758   54.5726 H   0  0  0  0  0  0
   30.3878   -0.8656   52.1754 H   0  0  0  0  0  0
   31.0634   -1.0208   53.7725 H   0  0  0  0  0  0
  1  4  1  0  0  0
  1  7  1  0  0  0
  1  2  2  0  0  0
  2  3  1  0  0  0
  2 32  1  0  0  0
  3  6  2  0  0  0
  3 33  1  0  0  0
  4  5  2  0  0  0
  4 34  1  0  0  0
  5  6  1  0  0  0
  5 35  1  0  0  0
  6 31  1  0  0  0
  7 20  1  0  0  0
  7 36  1  0  0  0
  7 37  1  0  0  0
  8  9  2  0  0  0
  8 13  1  0  0  0
  8 38  1  0  0  0
  9 10  1  0  0  0
  9 39  1  0  0  0
 10 11  2  0  0  0
 11 20  1  0  0  0
 11 12  1  0  0  0
 12 13  2  0  0  0
 12 14  1  0  0  0
 13 40  1  0  0  0
 14 18  2  0  0  0
 14 15  1  0  0  0
 15 16  1  0  0  0
 16 17  2  0  0  0
 16 19  1  0  0  0
 17 18  1  0  0  0
 19 21  1  0  0  0
 19 41  1  0  0  0
 20 42  1  0  0  0
 21 22  2  0  0  0
 21 24  1  0  0  0
 22 26  1  0  0  0
 22 43  1  0  0  0
 23 25  1  0  0  0
 23 24  2  0  0  0
 23 44  1  0  0  0
 24 45  1  0  0  0
 25 26  2  0  0  0
 25 30  1  0  0  0
 26 27  1  0  0  0
 27 28  1  0  0  0
 28 29  1  0  0  0
 28 46  1  0  0  0
 28 47  1  0  0  0
 29 30  1  0  0  0
 29 48  1  0  0  0
 29 49  1  0  0  0
M  END
> <s_m_entry_id>
448

> <s_m_entry_name>
pocket_pv.259

> <s_m_Source_Path>
/home/bortolaa/Project/GT/mario-master/docking/set505protein_struct_1_site_1_set505ligs_train

> <s_m_Source_File>
pocket_pv.maegz

> <i_m_Source_File_Index>
259

> <From>
www.bindingDB.org

> <BindingDB Reactant_set_id>
50501166

> <Ligand InChI>
InChI=1S/C17H13N5O/c1-2-11-4-3-5-12(8-11)21-16-14-9-13(22-17(18)23)6-7-15(14)19-10-20-16/h1,3-10H,(H3,18,22,23)(H,19,20,21)

> <Ligand InChI Key>
JPUXGMPWGVEAMX-UHFFFAOYSA-N

> <BindingDB MonomerID>
50179510

> <BindingDB Ligand Name>
CHEMBL3814447

> <Target Name Assigned by Curator or DataSource>
Epidermal growth factor receptor

> <Target Source Organism According to Curator or DataSource>


> <Ki (nM)>


> <Kd (nM)>


> <EC50 (nM)>


> <kon (M-1-s-1)>


> <koff (s-1)>


> <pH>


> <Temp C>


> <Curation/DataSource>
ChEMBL

> <Article DOI>
10.1016/j.bmc.2016.05.063

> <PubChem AID>


> <Patent Number>


> <Authors>
Mowafy, S; Galanis, A; Doctor, ZM; Paranal, RM; Lasheen, DS; Farag, NA; Jänne, PA; Abouzid, KA

> <Institution>
Harvard Medical School

> <Link to Ligand in BindingDB>
http://www.bindingdb.org/bind/chemsearch/marvin/MolStructure.jsp?monomerid=50179510

> <Link to Ligand-Target Pair in BindingDB>
http://www.bindingdb.org/jsp/dbsearch/PrimarySearch_ki.jsp?energyterm=kJ/mole&tag=r21&monomerid=50179510&enzyme=Epidermal+growth+factor+receptor&column=ki&startPg=0&Increment=50&submit=Search

> <Ligand HET ID in PDB>


> <PDB ID(s) for Ligand-Target Complex>


> <PubChem CID>
127049690

> <PubChem SID>
104064671

> <ChEBI ID of Ligand>


> <ChEMBL ID of Ligand>
CHEMBL3814447

> <DrugBank ID of Ligand>


> <IUPHAR_GRAC ID of Ligand>


> <KEGG ID of Ligand>


> <ZINC ID of Ligand>
ZINC28570143

> <Number of Protein Chains in Target (>
4

> <BindingDB Target Chain Sequence>
MRANDALQVLGLLFSLARGSEVGNSQAVCPGTLNGLSVTGDAENQYQTLYKLYERCEVVMGNLEIVLTGHNADLSFLQWIREVTGYVLVAMNEFSTLPLPNLRVVRGTQVYDGKFAIFVMLNYNTNSSHALRQLRLTQLTEILSGGVYIEKNDKLCHMDTIDWRDIVRDRDAEIVVKDNGRSCPPCHEVCKGRCWGPGSEDCQTLTKTICAPQCNGHCFGPNPNQCCHDECAGGCSGPQDTDCFACRHFNDSGACVPRCPQPLVYNKLTFQLEPNPHTKYQYGGVCVASCPHNFVVDQTSCVRACPPDKMEVDKNGLKMCEPCGGLCPKACEGTGSGSRFQTVDSSNIDGFVNCTKILGNLDFLITGLNGDPWHKIPALDPEKLNVFRTVREITGYLNIQSWPPHMHNFSVFSNLTTIGGRSLYNRGFSLLIMKNLNVTSLGFRSLKEISAGRIYISANRQLCYHHSLNWTKVLRGPTEERLDIKHNRPRRDCVAEGKVCDPLCSSGGCWGPGPGQCLSCRNYSRGGVCVTHCNFLNGEPREFAHEAECFSCHPECQPMEGTATCNGSGSDTCAQCAHFRDGPHCVSSCPHGVLGAKGPIYKYPDVQNECRPCHENCTQGCKGPELQDCLGQTLVLIGKTHLTMALTVIAGLVVIFMMLGGTFLYWRGRRIQNKRAMRRYLERGESIEPLDPSEKANKVLARIFKETELRKLKVLGSGVFGTVHKGVWIPEGESIKIPVCIKVIEDKSGRQSFQAVTDHMLAIGSLDHAHIVRLLGLCPGSSLQLVTQYLPLGSLLDHVRQHRGALGPQLLLNWGVQIAKGMYYLEEHGMVHRNLAARNVLLKSPSQVQVADFGVADLLPPDDKQLLYSEAKTPIKWMALESIHFGKYTHQSDVWSYGVTVWELMTFGAEPYAGLRLAEVPDLLEKGERLAQPQICTIDVYMVMVKCWMIDENIRPTFKELANEFTRMARDPPRYLVIKRESGPGIAPGPEPHGLTNKKLEEVELEPELDLDLDLEAEEDNLATTTLGSALSLPVGTLNRPRGSQSLLSPSSGYMPMNQGNLGESCQESAVSGSSERCPRPVSLHPMPRGCLASESSEGHVTGSEAELQEKVSMCRSRSRSRSPRPRGDSAYHSQRHSLLTPVTPLSPPGLEEEDVNGYVMPDTHLKGTPSSREGTLSSVGLSSVLGTEEEDEDEEYEYMNRRRRHSPPHPPRPSSLEELGYEYMDVGSDLSASLGSTQSCPLHPVPIMPTAGTTPDEDYEYMNRQRDGGGPGGDYAAMGACPASEQGYEEMRAFQGPGHQAPHVHYARLKTLRSLEATDSAFDNPDYWHSRLFPKANAQRT

> <PDB ID(s) of Target Chain>
3KEX,4RIX,4RIY,5CUS,5O4O,5O7P,6OP9

> <UniProt (SwissProt) Recommended Name of Target Chain>
Receptor tyrosine-protein kinase erbB-3

> <UniProt (SwissProt) Entry Name of Target Chain>
ERBB3_HUMAN

> <UniProt (SwissProt) Primary ID of Target Chain>
P21860

> <UniProt (SwissProt) Secondary ID(s) of Target Chain>
A8K6L6,B4DIK7,B4DV32,E9PDT8,Q9BUD7

> <UniProt (SwissProt) Alternative ID(s) of Target Chain>


> <UniProt (TrEMBL) Submitted Name of Target Chain>


> <UniProt (TrEMBL) Entry Name of Target Chain>


> <UniProt (TrEMBL) Primary ID of Target Chain>


> <UniProt (TrEMBL) Secondary ID(s) of Target Chain>


> <UniProt (TrEMBL) Alternative ID(s) of Target Chain>


> <training label>
6.4389

> <i_lp_mmshare_version>
54117

> <s_epik_input>
W2NIXTFbY0hdYyhGKVtjSF1bY0hdYzFbQ0gyXVtOSF1jMm5bY0hdW2NIXVtjSF1jMi1jM29jKG5uMylbTkhdYyhbY0hdW2NIXTQpW2NIXWMoYzQ1KU9bQ0gyXVtDSDJdTzU=

> <s_epik_cmdline>
J2VwaWtfcHl0aG9uJywgJy1waHQnLCAnMC4xJywgJy1waCcsICc3LjQnLCAnLXRuJywgJzgnLCAnLW1hJywgJzIwMCcsICctaW1hZScsICc8aW5maWxlLm1hZT4nLCAnLW9tYWUnLCAnPG91dGZpbGUubWFlPic=

> <r_lp_tautomer_probability>
0.999975512799159

> <r_epik_Ionization_Penalty>
  0.1361

> <r_epik_Ionization_Penalty_Charging>
  0.0000

> <r_epik_Ionization_Penalty_Neutral>
  0.1361

> <r_epik_State_Penalty>
  0.1254

> <r_epik_Charging_Adjusted_Penalty>
0.125448855074649

> <i_epik_Tot_Q>
0

> <i_epik_Tot_abs_Q>
0

> <i_f3d_flags>
0

> <s_lp_Force_Field>
OPLS_2005

> <r_lp_Energy>
26.296566

> <b_lp_Chiralities_Consistent>
1

> <s_lp_Variant>
BindingDB_50179510_mol_1-1

> <s_i_glide_gridfile>
struct_1_site_1

> <i_i_glide_lignum>
115

> <i_i_glide_rotatable_bonds>
6

> <r_i_docking_score>
-5.86419481735178

> <r_i_glide_ligand_efficiency>
-0.189167574753283

> <r_i_glide_ligand_efficiency_sa>
-0.594247358709554

> <r_i_glide_ligand_efficiency_ln>
-1.3225556473009

> <r_i_glide_gscore>
-5.98959481735178

> <r_i_glide_lipo>
-3.45757595279693

> <r_i_glide_hbond>
0

> <r_i_glide_metal>
0

> <r_i_glide_rewards>
-0.605652733938344

> <r_i_glide_evdw>
-44.4924926757812

> <r_i_glide_ecoul>
-2.51023650169373

> <r_i_glide_erotb>
0.67479397842662

> <r_i_glide_esite>
0

> <r_i_glide_emodel>
-36.6027141863795

> <r_i_glide_energy>
-47.002729177475

> <r_i_glide_einternal>
3.18212962150574

> <i_i_glide_confnum>
146

> <i_i_glide_posenum>
14

> <r_i_glide_eff_state_penalty>
0.1254

> <IC50 (nM)>
364

> <PMID>
27288180

> <r_glide_shape_similarity>
0.730021178722382

> <s_m_subgroup_title>
505 training

> <s_m_subgroupid>
pocket_pv

> <b_m_subgroup_collapsed>
0

$$$$
/home/bortolaa/Project/GT/mario-master/ligands/set505ligs_train.sdf:16
                    3D
 Schrodinger Suite 2021-2.
 65 67  0  0  1  0            999 V2000
   23.0921   -0.3812   53.9270 C   0  0  0  0  0  0
   24.4250    0.0648   53.7309 C   0  0  0  0  0  0
   25.4068   -0.4407   54.6184 C   0  0  0  0  0  0
   25.0485   -1.2661   55.6250 N   0  0  0  0  0  0
   23.7662   -1.6533   55.7029 C   0  0  0  0  0  0
   22.7786   -1.2592   54.9060 N   0  0  0  0  0  0
   26.7547   -0.0478   54.4499 C   0  0  0  0  0  0
   27.1197    0.9260   53.4910 C   0  0  0  0  0  0
   26.1224    1.4911   52.6725 C   0  0  0  0  0  0
   24.7997    0.9868   52.7329 C   0  0  0  0  0  0
   26.5094    2.5394   51.8614 O   0  0  0  0  0  0
   25.5160    3.3966   51.2859 C   0  0  0  0  0  0
   28.4012    1.3992   53.3228 O   0  0  0  0  0  0
   29.3896    0.9580   54.2337 C   0  0  0  0  0  0
   22.0839    0.1487   53.1076 N   0  0  0  0  0  0
   20.7177   -0.1324   52.9881 C   0  0  0  0  0  0
   20.0251    0.5816   51.9839 C   0  0  0  0  0  0
   18.6447    0.3819   51.7815 C   0  0  0  0  0  0
   17.9485   -0.5418   52.5941 C   0  0  0  0  0  0
   18.6457   -1.2839   53.5672 C   0  0  0  0  0  0
   20.0205   -1.0820   53.7746 C   0  0  0  0  0  0
   16.5610   -0.7926   52.4810 N   0  0  0  0  0  0
   15.5758    0.1592   52.2903 C   0  0  0  0  0  0
   15.7190    1.2925   51.8360 O   0  0  0  0  0  0
   24.5446    4.0437   52.3164 C   0  0  0  0  0  0
   23.7415    5.1774   51.7454 N   0  3  0  0  0  0
   22.3772    5.2640   52.3702 C   0  0  0  0  0  0
   24.4950    6.4703   51.7746 C   0  0  0  0  0  0
   23.8675    7.5957   50.9208 C   0  0  0  0  0  0
   21.4091    4.1690   51.8454 C   0  0  0  0  0  0
   14.4131   -0.3898   52.6878 O   0  0  0  0  0  0
   13.2020    0.3597   52.6849 C   0  0  0  0  0  0
   12.8279    0.7659   54.1165 C   0  0  0  0  0  0
   23.4906   -2.3230   56.5039 H   0  0  0  0  0  0
   27.4913   -0.4657   55.1201 H   0  0  0  0  0  0
   24.0642    1.3508   52.0332 H   0  0  0  0  0  0
   26.0704    4.1748   50.7659 H   0  0  0  0  0  0
   24.9610    2.8608   50.5170 H   0  0  0  0  0  0
   30.3156    1.4984   54.0679 H   0  0  0  0  0  0
   29.0896    1.1671   55.2592 H   0  0  0  0  0  0
   29.5973   -0.1087   54.1210 H   0  0  0  0  0  0
   22.4133    0.8368   52.4530 H   0  0  0  0  0  0
   20.5443    1.2928   51.3555 H   0  0  0  0  0  0
   18.1358    0.9381   51.0092 H   0  0  0  0  0  0
   18.1210   -2.0021   54.1797 H   0  0  0  0  0  0
   20.4836   -1.6670   54.5460 H   0  0  0  0  0  0
   16.2174   -1.6468   52.9026 H   0  0  0  0  0  0
   23.8524    3.2960   52.6885 H   0  0  0  0  0  0
   25.0854    4.3339   53.2134 H   0  0  0  0  0  0
   22.4664    5.2142   53.4597 H   0  0  0  0  0  0
   21.9097    6.2240   52.1605 H   0  0  0  0  0  0
   24.6265    6.7857   52.8103 H   0  0  0  0  0  0
   25.4927    6.2980   51.3754 H   0  0  0  0  0  0
   24.5157    8.4708   50.9220 H   0  0  0  0  0  0
   23.7344    7.2760   49.8898 H   0  0  0  0  0  0
   22.8990    7.9158   51.3016 H   0  0  0  0  0  0
   20.3995    4.3071   52.2278 H   0  0  0  0  0  0
   21.3511    4.1951   50.7555 H   0  0  0  0  0  0
   21.7210    3.1705   52.1383 H   0  0  0  0  0  0
   12.4168   -0.2748   52.2740 H   0  0  0  0  0  0
   13.2668    1.2370   52.0405 H   0  0  0  0  0  0
   11.8696    1.2864   54.1287 H   0  0  0  0  0  0
   13.5653    1.4369   54.5524 H   0  0  0  0  0  0
   12.7364   -0.1124   54.7588 H   0  0  0  0  0  0
   23.5859    4.9694   50.7644 H   0  0  0  0  0  0
  1  2  2  0  0  0
  1  6  1  0  0  0
  1 15  1  0  0  0
  2 10  1  0  0  0
  2  3  1  0  0  0
  3  4  2  0  0  0
  3  7  1  0  0  0
  4  5  1  0  0  0
  5  6  2  0  0  0
  5 34  1  0  0  0
  7  8  2  0  0  0
  7 35  1  0  0  0
  8  9  1  0  0  0
  8 13  1  0  0  0
  9 10  2  0  0  0
  9 11  1  0  0  0
 10 36  1  0  0  0
 11 12  1  0  0  0
 12 25  1  0  0  0
 12 37  1  0  0  0
 12 38  1  0  0  0
 13 14  1  0  0  0
 14 39  1  0  0  0
 14 40  1  0  0  0
 14 41  1  0  0  0
 15 16  1  0  0  0
 15 42  1  0  0  0
 16 17  2  0  0  0
 16 21  1  0  0  0
 17 18  1  0  0  0
 17 43  1  0  0  0
 18 19  2  0  0  0
 18 44  1  0  0  0
 19 20  1  0  0  0
 19 22  1  0  0  0
 20 21  2  0  0  0
 20 45  1  0  0  0
 21 46  1  0  0  0
 22 23  1  0  0  0
 22 47  1  0  0  0
 23 24  2  0  0  0
 23 31  1  0  0  0
 25 26  1  0  0  0
 25 48  1  0  0  0
 25 49  1  0  0  0
 26 27  1  0  0  0
 26 28  1  0  0  0
 26 65  1  0  0  0
 27 30  1  0  0  0
 27 50  1  0  0  0
 27 51  1  0  0  0
 28 29  1  0  0  0
 28 52  1  0  0  0
 28 53  1  0  0  0
 29 54  1  0  0  0
 29 55  1  0  0  0
 29 56  1  0  0  0
 30 57  1  0  0  0
 30 58  1  0  0  0
 30 59  1  0  0  0
 31 32  1  0  0  0
 32 33  1  0  0  0
 32 60  1  0  0  0
 32 61  1  0  0  0
 33 62  1  0  0  0
 33 63  1  0  0  0
 33 64  1  0  0  0
M  CHG  1  26   1
M  END
> <s_m_entry_id>
449

> <s_m_entry_name>
pocket_pv.260

> <s_m_Source_Path>
/home/bortolaa/Project/GT/mario-master/docking/set505protein_struct_1_site_1_set505ligs_train

> <s_m_Source_File>
pocket_pv.maegz

> <i_m_Source_File_Index>
260

> <From>
www.bindingDB.org

> <BindingDB Reactant_set_id>
406583

> <Ligand InChI>
InChI=1S/C24H31N5O4/c1-5-29(6-2)12-13-33-22-14-19-20(15-21(22)31-4)25-16-26-23(19)27-17-8-10-18(11-9-17)28-24(30)32-7-3/h8-11,14-16H,5-7,12-13H2,1-4H3,(H,28,30)(H,25,26,27)

> <Ligand InChI Key>
JUPRCVNZWMPUFI-UHFFFAOYSA-N

> <BindingDB MonomerID>
233099

> <BindingDB Ligand Name>
Ethyl {4-[7-(2-diethylaminoethoxy)-6-methoxyquinazolin-4-ylamino]phenyl}carbamate hydrochloride (19c)

> <Target Name Assigned by Curator or DataSource>
Epidermal growth factor receptor

> <Target Source Organism According to Curator or DataSource>
Homo sapiens

> <Ki (nM)>


> <IC50 (nM)>
18600

> <Kd (nM)>


> <EC50 (nM)>


> <kon (M-1-s-1)>


> <koff (s-1)>


> <Temp C>


> <Curation/DataSource>
Curated from the literature by BindingDB

> <Article DOI>
10.3109/14756360903169485

> <PubChem AID>


> <Patent Number>


> <Authors>
Garofalo, A; Goossens, L; Lemoine, A; Farce, A; Arlot, Y; Depreux, P

> <Institution>
Université Lille Nord de France

> <Link to Ligand in BindingDB>
http://www.bindingdb.org/bind/chemsearch/marvin/MolStructure.jsp?monomerid=233099

> <Link to Ligand-Target Pair in BindingDB>
http://www.bindingdb.org/jsp/dbsearch/PrimarySearch_ki.jsp?energyterm=kJ/mole&tag=r21&monomerid=233099&enzyme=Epidermal+growth+factor+receptor&column=ki&startPg=0&Increment=50&submit=Search

> <Ligand HET ID in PDB>


> <PDB ID(s) for Ligand-Target Complex>


> <PubChem CID>
129010598

> <PubChem SID>
340093193

> <ChEBI ID of Ligand>


> <ChEMBL ID of Ligand>


> <DrugBank ID of Ligand>


> <IUPHAR_GRAC ID of Ligand>


> <KEGG ID of Ligand>


> <ZINC ID of Ligand>


> <Number of Protein Chains in Target (>
1

> <BindingDB Target Chain Sequence>
MRPSGTAGAALLALLAALCPASRALEEKKVCQGTSNKLTQLGTFEDHFLSLQRMFNNCEVVLGNLEITYVQRNYDLSFLKTIQEVAGYVLIALNTVERIPLENLQIIRGNMYYENSYALAVLSNYDANKTGLKELPMRNLQEILHGAVRFSNNPALCNVESIQWRDIVSSDFLSNMSMDFQNHLGSCQKCDPSCPNGSCWGAGEENCQKLTKIICAQQCSGRCRGKSPSDCCHNQCAAGCTGPRESDCLVCRKFRDEATCKDTCPPLMLYNPTTYQMDVNPEGKYSFGATCVKKCPRNYVVTDHGSCVRACGADSYEMEEDGVRKCKKCEGPCRKVCNGIGIGEFKDSLSINATNIKHFKNCTSISGDLHILPVAFRGDSFTHTPPLDPQELDILKTVKEITGFLLIQAWPENRTDLHAFENLEIIRGRTKQHGQFSLAVVSLNITSLGLRSLKEISDGDVIISGNKNLCYANTINWKKLFGTSGQKTKIISNRGENSCKATGQVCHALCSPEGCWGPEPRDCVSCRNVSRGRECVDKCNLLEGEPREFVENSECIQCHPECLPQAMNITCTGRGPDNCIQCAHYIDGPHCVKTCPAGVMGENNTLVWKYADAGHVCHLCHPNCTYGCTGPGLEGCPTNGPKIPSIATGMVGALLLLLVVALGIGLFMRRRHIVRKRTLRRLLQERELVEPLTPSGEAPNQALLRILKETEFKKIKVLGSGAFGTVYKGLWIPEGEKVKIPVAIKELREATSPKANKEILDEAYVMASVDNPHVCRLLGICLTSTVQLITQLMPFGCLLDYVREHKDNIGSQYLLNWCVQIAKGMNYLEDRRLVHRDLAARNVLVKTPQHVKITDFGLAKLLGAEEKEYHAEGGKVPIKWMALESILHRIYTHQSDVWSYGVTVWELMTFGSKPYDGIPASEISSILEKGERLPQPPICTIDVYMIMVKCWMIDADSRPKFRELIIEFSKMARDPQRYLVIQGDERMHLPSPTDSNFYRALMDEEDMDDVVDADEYLIPQQGFFSSPSTSRTPLLSSLSATSNNSTVACIDRNGLQSCPIKEDSFLQRYSSDPTGALTEDSIDDTFLPVPEYINQSVPKRPAGSVQNPVYHNQPLNPAPSRDPHYQDPHSTAVGNPEYLNTVQPTCVNSTFDSPAHWAQKGSHQISLDNPDYQQDFFPKEAKPNGIFKGSTAENAEYLRVAPQSSEFIGA

> <PDB ID(s) of Target Chain>
1IVO,1M14,1M17,1MOX,1XKK,1Z9I,2GS2,2GS6,2ITW,2ITX,2ITY,2J5E,2J5F,2J6M,2RF9,2RGP,3B2V,3BEL,3GOP,3POZ,3QWQ,3VJO,3W2O,3W2P,3W2Q,3W2R,3W2S,3W32,3W33,4G5J,4I23,4JQ7,4JQ8,4JR3,4JRV,4KRO,4LI5,4RJ4,4RJ5,4RJ6,4RJ7,4RJ8,4TKS,4UIP,4UV7,4WKQ,4WRG,4ZAU,5C8K,5C8M,5C8N,5CAL,5CAN,5CAO,5CAP,5CAQ,5CAS,5CAU,5CAV,5EDP,5EDQ,5EDR,5EM5,5EM6,5EM7,5EM8,5FED,5GNK,5HCX,5HCY,5HCZ,5HIB,5HIC,5UGB,5WB7,5WB8,5Y25,6S89,6S8A

> <UniProt (SwissProt) Recommended Name of Target Chain>
Epidermal growth factor receptor

> <UniProt (SwissProt) Entry Name of Target Chain>
EGFR_HUMAN

> <UniProt (SwissProt) Primary ID of Target Chain>
P00533

> <UniProt (SwissProt) Secondary ID(s) of Target Chain>
O00688,O00732,P06268,Q14225,Q68GS5,Q92795,Q9BZS2,Q9GZX1,Q9H2C9,Q9H3C9,Q9UMD7,Q9UMD8,Q9UMG5

> <UniProt (SwissProt) Alternative ID(s) of Target Chain>


> <UniProt (TrEMBL) Submitted Name of Target Chain>


> <UniProt (TrEMBL) Entry Name of Target Chain>


> <UniProt (TrEMBL) Primary ID of Target Chain>


> <UniProt (TrEMBL) Secondary ID(s) of Target Chain>


> <UniProt (TrEMBL) Alternative ID(s) of Target Chain>


> <training label>
4.73049

> <i_lp_mmshare_version>
54117

> <s_epik_input>
W0NIM11bQ0gyXU9DKD1PKVtOSF1jKFtjSF1bY0hdMSlbY0hdW2NIXWMxW05IXWMybltjSF1uYyhjMjMpW2NIXWMoT1tDSDNdKWMoW2NIXTMpT1tDSDJdW0NIMl1OKFtDSDJdW0NIM10pW0NIMl1bQ0gzXQ==

> <s_epik_cmdline>
J2VwaWtfcHl0aG9uJywgJy1waHQnLCAnMC4xJywgJy1waCcsICc3LjQnLCAnLXRuJywgJzgnLCAnLW1hJywgJzIwMCcsICctaW1hZScsICc8aW5maWxlLm1hZT4nLCAnLW9tYWUnLCAnPG91dGZpbGUubWFlPic=

> <r_lp_tautomer_probability>
0.999978000241998

> <r_epik_Ionization_Penalty>
  0.0608

> <r_epik_Ionization_Penalty_Charging>
  0.0604

> <r_epik_Ionization_Penalty_Neutral>
  0.0004

> <r_epik_State_Penalty>
  0.0524

> <r_epik_Charging_Adjusted_Penalty>
0.112841773912698

> <i_epik_Tot_Q>
1

> <i_epik_Tot_abs_Q>
1

> <i_f3d_flags>
0

> <s_lp_Force_Field>
OPLS_2005

> <r_lp_Energy>
36.362844

> <b_lp_Chiralities_Consistent>
1

> <s_lp_Variant>
/home/bortolaa/Project/GT/mario-master/ligands/set505ligs_train.sdf:16-1

> <s_i_glide_gridfile>
struct_1_site_1

> <i_i_glide_lignum>
16

> <i_i_glide_rotatable_bonds>
13

> <r_i_docking_score>
-5.86156961363592

> <r_i_glide_ligand_efficiency>
-0.177623321625331

> <r_i_glide_ligand_efficiency_sa>
-0.569732901257114

> <r_i_glide_ligand_efficiency_ln>
-1.30358273248944

> <r_i_glide_gscore>
-5.91396961363592

> <r_i_glide_lipo>
-2.58463484002377

> <r_i_glide_hbond>
-0.0598038208733655

> <r_i_glide_metal>
0

> <r_i_glide_rewards>
-0.766623034366173

> <r_i_glide_evdw>
-48.2874603271484

> <r_i_glide_ecoul>
-5.94790458679199

> <r_i_glide_erotb>
0.874782659615319

> <r_i_glide_esite>
-0.0711318736117115

> <r_i_glide_emodel>
-36.223633041671

> <r_i_glide_energy>
-54.2353649139404

> <r_i_glide_einternal>
6.11185169219971

> <i_i_glide_confnum>
424

> <i_i_glide_posenum>
35

> <r_i_glide_eff_state_penalty>
0.0524

> <PMID>
20222760

> <s_epik_Chemistry_Notes>
This compound has an ester and may undergo hydrolysis at high or low pH.

> <r_glide_shape_similarity>
0.619606077671051

> <pH>
7.5

> <s_m_subgroup_title>
505 training

> <s_m_subgroupid>
pocket_pv

> <b_m_subgroup_collapsed>
0

$$$$
BindingDB_50144606_mol_1
                    3D
 Schrodinger Suite 2021-2.
 44 47  0  0  1  0            999 V2000
   25.2323    0.2443   53.5508 N   0  0  0  0  0  0
   26.5363   -0.3004   53.9275 C   0  0  2  0  0  0
   24.0052   -0.2383   53.9494 C   0  0  0  0  0  0
   23.0775    0.5726   53.2906 C   0  0  0  0  0  0
   23.6880    1.5691   52.5539 N   0  0  0  0  0  0
   27.3417    0.7419   54.6612 C   0  0  2  0  0  0
   24.9674    1.3032   52.7728 C   0  0  0  0  0  0
   27.2208   -0.6219   52.7819 O   0  0  0  0  0  0
   28.6928    0.6865   53.9768 C   0  0  1  0  0  0
   28.5982   -0.5303   53.0668 C   0  0  1  0  0  0
   21.7419    0.2432   53.5241 C   0  0  0  0  0  0
   23.6995   -1.2644   54.7852 N   0  0  0  0  0  0
   21.3951   -0.8048   54.2921 N   0  0  0  0  0  0
   20.4857    1.2738   52.9296 S   0  0  0  0  0  0
   22.3868   -1.4744   54.8757 C   0  0  0  0  0  0
   27.4825    0.3336   56.0021 O   0  0  0  0  0  0
   28.9236    1.8490   53.2131 O   0  0  0  0  0  0
   19.9055    0.4317   51.4694 C   0  0  0  0  0  0
   15.8139   -0.2972   52.5626 C   0  0  0  0  0  0
   18.4787    0.0963   51.7638 C   0  0  0  0  0  0
   29.1787   -1.7924   53.6734 C   0  0  0  0  0  0
   13.8451   -0.4887   53.2058 I   0  0  0  0  0  0
   16.8504   -1.0329   53.1630 C   0  0  0  0  0  0
   16.1126    0.6084   51.5395 C   0  0  0  0  0  0
   18.1784   -0.8534   52.7557 C   0  0  0  0  0  0
   17.4449    0.8171   51.1454 C   0  0  0  0  0  0
   29.0813   -2.8656   52.7885 O   0  0  0  0  0  0
   26.3248   -1.2016   54.5104 H   0  0  0  0  0  0
   26.8968    1.7350   54.5880 H   0  0  0  0  0  0
   25.7460    1.9101   52.3353 H   0  0  0  0  0  0
   29.5311    0.6166   54.6810 H   0  0  0  0  0  0
   29.1469   -0.4029   52.1744 H   0  0  0  0  0  0
   22.0869   -2.3024   55.5002 H   0  0  0  0  0  0
   28.0604    0.9481   56.4278 H   0  0  0  0  0  0
   29.8658    1.9820   53.1740 H   0  0  0  0  0  0
   19.9903    1.0917   50.6043 H   0  0  0  0  0  0
   20.4867   -0.4664   51.2742 H   0  0  0  0  0  0
   28.6843   -2.0671   54.5744 H   0  0  0  0  0  0
   30.2307   -1.6520   53.9142 H   0  0  0  0  0  0
   16.6342   -1.7390   53.9515 H   0  0  0  0  0  0
   15.3269    1.1838   51.0764 H   0  0  0  0  0  0
   18.9691   -1.3918   53.2654 H   0  0  0  0  0  0
   17.6767    1.5463   50.3855 H   0  0  0  0  0  0
   29.3196   -3.6582   53.2459 H   0  0  0  0  0  0
  1  2  1  0  0  0
  1  3  1  0  0  0
  1  7  1  0  0  0
  2  6  1  0  0  0
  2  8  1  0  0  0
  2 28  1  0  0  0
  3  4  2  0  0  0
  3 12  1  0  0  0
  4 11  1  0  0  0
  4  5  1  0  0  0
  5  7  2  0  0  0
  6  9  1  0  0  0
  6 16  1  0  0  0
  6 29  1  0  0  0
  7 30  1  0  0  0
  8 10  1  0  0  0
  9 17  1  0  0  0
  9 10  1  0  0  0
  9 31  1  0  0  0
 10 21  1  0  0  0
 10 32  1  0  0  0
 11 14  1  0  0  0
 11 13  2  0  0  0
 12 15  2  0  0  0
 13 15  1  0  0  0
 14 18  1  0  0  0
 15 33  1  0  0  0
 16 34  1  0  0  0
 17 35  1  0  0  0
 18 20  1  0  0  0
 18 36  1  0  0  0
 18 37  1  0  0  0
 19 24  2  0  0  0
 19 22  1  0  0  0
 19 23  1  0  0  0
 20 25  1  0  0  0
 20 26  2  0  0  0
 21 27  1  0  0  0
 21 38  1  0  0  0
 21 39  1  0  0  0
 23 25  2  0  0  0
 23 40  1  0  0  0
 24 26  1  0  0  0
 24 41  1  0  0  0
 25 42  1  0  0  0
 26 43  1  0  0  0
 27 44  1  0  0  0
M  END
> <s_m_entry_id>
450

> <s_m_entry_name>
pocket_pv.261

> <s_m_Source_Path>
/home/bortolaa/Project/GT/mario-master/docking/set505protein_struct_1_site_1_set505ligs_train

> <s_m_Source_File>
pocket_pv.maegz

> <i_m_Source_File_Index>
261

> <From>
www.bindingDB.org

> <BindingDB Reactant_set_id>
50463846

> <Ligand InChI>
InChI=1S/C29H23ClN4O3/c1-36-26-15-23-25(16-27(26)37-17-19-7-3-2-4-8-19)31-18-32-28(23)33-20-11-13-21(14-12-20)34-29(35)22-9-5-6-10-24(22)30/h2-16,18H,17H2,1H3,(H,34,35)(H,31,32,33)

> <Ligand InChI Key>
JASSTMZJDQXQFP-UHFFFAOYSA-N

> <BindingDB MonomerID>
50144606

> <BindingDB Ligand Name>
CHEMBL3759203

> <Target Name Assigned by Curator or DataSource>
Epidermal growth factor receptor

> <Target Source Organism According to Curator or DataSource>
Homo sapiens

> <Ki (nM)>


> <IC50 (nM)>
730

> <Kd (nM)>


> <EC50 (nM)>


> <kon (M-1-s-1)>


> <koff (s-1)>


> <pH>


> <Temp C>


> <Curation/DataSource>
ChEMBL

> <Article DOI>
10.1016/j.ejmech.2015.12.032

> <PubChem AID>


> <Patent Number>


> <Authors>
Zhang, HQ; Gong, FH; Li, CG; Zhang, C; Wang, YJ; Xu, YG; Sun, LP

> <Institution>
China Pharmaceutical University

> <Link to Ligand in BindingDB>
http://www.bindingdb.org/bind/chemsearch/marvin/MolStructure.jsp?monomerid=50144606

> <Link to Ligand-Target Pair in BindingDB>
http://www.bindingdb.org/jsp/dbsearch/PrimarySearch_ki.jsp?energyterm=kJ/mole&tag=r21&monomerid=50144606&enzyme=Epidermal+growth+factor+receptor&column=ki&startPg=0&Increment=50&submit=Search

> <Ligand HET ID in PDB>


> <PDB ID(s) for Ligand-Target Complex>


> <PubChem CID>
44312149

> <PubChem SID>
104033684

> <ChEBI ID of Ligand>


> <ChEMBL ID of Ligand>
CHEMBL3759203

> <DrugBank ID of Ligand>


> <IUPHAR_GRAC ID of Ligand>


> <KEGG ID of Ligand>


> <ZINC ID of Ligand>
ZINC36332177

> <Number of Protein Chains in Target (>
1

> <BindingDB Target Chain Sequence>
MRPSGTAGAALLALLAALCPASRALEEKKVCQGTSNKLTQLGTFEDHFLSLQRMFNNCEVVLGNLEITYVQRNYDLSFLKTIQEVAGYVLIALNTVERIPLENLQIIRGNMYYENSYALAVLSNYDANKTGLKELPMRNLQEILHGAVRFSNNPALCNVESIQWRDIVSSDFLSNMSMDFQNHLGSCQKCDPSCPNGSCWGAGEENCQKLTKIICAQQCSGRCRGKSPSDCCHNQCAAGCTGPRESDCLVCRKFRDEATCKDTCPPLMLYNPTTYQMDVNPEGKYSFGATCVKKCPRNYVVTDHGSCVRACGADSYEMEEDGVRKCKKCEGPCRKVCNGIGIGEFKDSLSINATNIKHFKNCTSISGDLHILPVAFRGDSFTHTPPLDPQELDILKTVKEITGFLLIQAWPENRTDLHAFENLEIIRGRTKQHGQFSLAVVSLNITSLGLRSLKEISDGDVIISGNKNLCYANTINWKKLFGTSGQKTKIISNRGENSCKATGQVCHALCSPEGCWGPEPRDCVSCRNVSRGRECVDKCNLLEGEPREFVENSECIQCHPECLPQAMNITCTGRGPDNCIQCAHYIDGPHCVKTCPAGVMGENNTLVWKYADAGHVCHLCHPNCTYGCTGPGLEGCPTNGPKIPSIATGMVGALLLLLVVALGIGLFMRRRHIVRKRTLRRLLQERELVEPLTPSGEAPNQALLRILKETEFKKIKVLGSGAFGTVYKGLWIPEGEKVKIPVAIKELREATSPKANKEILDEAYVMASVDNPHVCRLLGICLTSTVQLITQLMPFGCLLDYVREHKDNIGSQYLLNWCVQIAKGMNYLEDRRLVHRDLAARNVLVKTPQHVKITDFGLAKLLGAEEKEYHAEGGKVPIKWMALESILHRIYTHQSDVWSYGVTVWELMTFGSKPYDGIPASEISSILEKGERLPQPPICTIDVYMIMVKCWMIDADSRPKFRELIIEFSKMARDPQRYLVIQGDERMHLPSPTDSNFYRALMDEEDMDDVVDADEYLIPQQGFFSSPSTSRTPLLSSLSATSNNSTVACIDRNGLQSCPIKEDSFLQRYSSDPTGALTEDSIDDTFLPVPEYINQSVPKRPAGSVQNPVYHNQPLNPAPSRDPHYQDPHSTAVGNPEYLNTVQPTCVNSTFDSPAHWAQKGSHQISLDNPDYQQDFFPKEAKPNGIFKGSTAENAEYLRVAPQSSEFIGA

> <PDB ID(s) of Target Chain>
1IVO,1M14,1M17,1MOX,1XKK,1Z9I,2GS2,2GS6,2ITW,2ITX,2ITY,2J5E,2J5F,2J6M,2RF9,2RGP,3B2V,3BEL,3GOP,3POZ,3QWQ,3VJO,3W2O,3W2P,3W2Q,3W2R,3W2S,3W32,3W33,4G5J,4I23,4JQ7,4JQ8,4JR3,4JRV,4KRO,4LI5,4RJ4,4RJ5,4RJ6,4RJ7,4RJ8,4TKS,4UIP,4UV7,4WKQ,4WRG,4ZAU,5C8K,5C8M,5C8N,5CAL,5CAN,5CAO,5CAP,5CAQ,5CAS,5CAU,5CAV,5EDP,5EDQ,5EDR,5EM5,5EM6,5EM7,5EM8,5FED,5GNK,5HCX,5HCY,5HCZ,5HIB,5HIC,5UGB,5WB7,5WB8,5Y25,6S89,6S8A

> <UniProt (SwissProt) Recommended Name of Target Chain>
Epidermal growth factor receptor

> <UniProt (SwissProt) Entry Name of Target Chain>
EGFR_HUMAN

> <UniProt (SwissProt) Primary ID of Target Chain>
P00533

> <UniProt (SwissProt) Secondary ID(s) of Target Chain>
O00688,O00732,P06268,Q14225,Q68GS5,Q92795,Q9BZS2,Q9GZX1,Q9H2C9,Q9H3C9,Q9UMD7,Q9UMD8,Q9UMG5

> <UniProt (SwissProt) Alternative ID(s) of Target Chain>


> <UniProt (TrEMBL) Submitted Name of Target Chain>


> <UniProt (TrEMBL) Entry Name of Target Chain>


> <UniProt (TrEMBL) Primary ID of Target Chain>


> <UniProt (TrEMBL) Secondary ID(s) of Target Chain>


> <UniProt (TrEMBL) Alternative ID(s) of Target Chain>


> <training label>
6.13668

> <i_lp_mmshare_version>
54117

> <s_epik_input>
W09IXVtDSDJdW0NAQEhdKE8xKVtDQEBIXShbT0hdKVtDQEhdKFtPSF0pW0NASF0xbjJbY0hdbmMoYzIzKWMobltjSF1uMylTW0NIMl1jKFtjSF1bY0hdNClbY0hdW2NIXWM0SQ==

> <s_epik_cmdline>
J2VwaWtfcHl0aG9uJywgJy1waHQnLCAnMC4xJywgJy1waCcsICc3LjQnLCAnLXRuJywgJzgnLCAnLW1hJywgJzIwMCcsICctaW1hZScsICc8aW5maWxlLm1hZT4nLCAnLW9tYWUnLCAnPG91dGZpbGUubWFlPic=

> <r_lp_tautomer_probability>
1

> <r_epik_Ionization_Penalty>
  0.0001

> <r_epik_Ionization_Penalty_Charging>
  0.0000

> <r_epik_Ionization_Penalty_Neutral>
  0.0001

> <r_epik_State_Penalty>
  0.0000

> <r_epik_Charging_Adjusted_Penalty>
0

> <i_epik_Tot_Q>
0

> <i_epik_Tot_abs_Q>
0

> <i_f3d_flags>
0

> <s_lp_Force_Field>
OPLS_2005

> <r_lp_Energy>
34.789166

> <b_lp_Chiralities_Consistent>
1

> <s_lp_Variant>
BindingDB_50144606_mol_1-9

> <s_i_glide_gridfile>
struct_1_site_1

> <i_i_glide_lignum>
88

> <i_i_glide_rotatable_bonds>
8

> <r_i_docking_score>
-5.84709253105788

> <r_i_glide_ligand_efficiency>
-0.216558982631773

> <r_i_glide_ligand_efficiency_sa>
-0.649676947181577

> <r_i_glide_ligand_efficiency_ln>
-1.36110674437608

> <r_i_glide_gscore>
-5.84709253105788

> <r_i_glide_lipo>
-2.29064570216406

> <r_i_glide_hbond>
0

> <r_i_glide_metal>
0

> <r_i_glide_rewards>
-1.41234379911745

> <r_i_glide_evdw>
-40.0383834838867

> <r_i_glide_ecoul>
-3.66700553894043

> <r_i_glide_erotb>
0.407866975259027

> <r_i_glide_esite>
0

> <r_i_glide_emodel>
-30.5037152649798

> <r_i_glide_energy>
-43.7053890228271

> <r_i_glide_einternal>
4.55791807174683

> <i_i_glide_confnum>
109

> <i_i_glide_posenum>
184

> <r_i_glide_eff_state_penalty>
0

> <PMID>
26826581

> <s_epik_Chemistry_Notes>
This compound contains an acetal/aminal-like group ( X-CH(R)-Y where X, Y are N, S, or O) that may be acid/base labile, releasing an aldehyde.

> <r_glide_shape_similarity>
0.737830221652985

> <s_m_subgroup_title>
505 training

> <s_m_subgroupid>
pocket_pv

> <b_m_subgroup_collapsed>
0

$$$$
/home/bortolaa/Project/GT/mario-master/ligands/set505ligs_train.sdf:90
                    3D
 Schrodinger Suite 2021-2.
 76 80  0  0  1  0            999 V2000
   13.7094   -0.3698   51.2499 C   0  0  0  0  0  0
   13.2629    0.1611   50.0023 C   0  0  0  0  0  0
   14.1278    1.0207   49.2716 C   0  0  0  0  0  0
   15.0396   -0.1292   51.6771 C   0  0  0  0  0  0
   15.9096    0.6552   50.8811 C   0  0  0  0  0  0
   15.4414    1.2975   49.6985 C   0  0  0  0  0  0
   16.2431    2.1230   48.9812 N   0  0  0  0  0  0
   17.4912    2.2996   49.4140 C   0  0  0  0  0  0
   18.0420    1.6998   50.4726 N   0  0  0  0  0  0
   17.2755    0.8383   51.1852 C   0  0  0  0  0  0
   17.8321    0.0459   52.2016 N   0  0  0  0  0  0
   19.1607   -0.1490   52.5773 C   0  0  0  0  0  0
   20.2503    0.3349   51.8214 C   0  0  0  0  0  0
   21.5407    0.1935   52.3008 C   0  0  0  0  0  0
   21.7760   -0.4324   53.5432 C   0  0  0  0  0  0
   20.7132   -1.0098   54.2573 C   0  0  0  0  0  0
   19.4052   -0.8669   53.7698 C   0  0  0  0  0  0
   23.0668   -0.5123   54.0775 N   0  0  0  0  0  0
   24.0559    0.3342   53.7746 C   0  0  0  0  0  0
   25.2171   -0.1768   54.1567 N   0  0  0  0  0  0
   23.9251    1.4457   53.2662 O   0  0  0  0  0  0
   26.4858    0.2841   53.7818 C   0  0  0  0  0  0
   27.4394   -0.7252   53.6491 C   0  0  0  0  0  0
   28.7748   -0.3925   53.4515 C   0  0  0  0  0  0
   29.1655    0.9581   53.3735 C   0  0  0  0  0  0
   28.1956    1.9801   53.4323 C   0  0  0  0  0  0
   26.8459    1.6453   53.6399 C   0  0  0  0  0  0
   12.8118   -1.1186   51.9924 O   0  0  0  0  0  0
   13.1438   -1.3971   53.3523 C   0  0  0  0  0  0
   11.9883   -0.1774   49.5634 O   0  0  0  0  0  0
   11.4632    0.4242   48.3677 C   0  0  0  0  0  0
   11.0021    1.8898   48.5954 C   0  0  0  0  0  0
    9.6062    2.0446   49.2519 C   0  0  0  0  0  0
    9.4380    1.2183   50.4499 N   0  0  2  0  0  0
    8.0437    1.3109   50.9008 C   0  0  0  0  0  0
    7.8179    0.3621   52.0942 C   0  0  0  0  0  0
    8.7258    0.7338   53.2110 N   0  3  0  0  0  0
   10.1422    0.7290   52.7624 C   0  0  0  0  0  0
   10.3239    1.6649   51.5413 C   0  0  0  0  0  0
    8.4918   -0.0333   54.4565 C   0  0  0  0  0  0
   29.8930   -1.6758   53.3744 Cl  0  0  0  0  0  0
   13.8218    1.4869   48.3482 H   0  0  0  0  0  0
   15.3956   -0.5606   52.6007 H   0  0  0  0  0  0
   18.1188    2.9644   48.8401 H   0  0  0  0  0  0
   17.1596   -0.5005   52.7199 H   0  0  0  0  0  0
   20.1658    0.8193   50.8627 H   0  0  0  0  0  0
   22.3444    0.5702   51.6847 H   0  0  0  0  0  0
   20.8791   -1.5104   55.1997 H   0  0  0  0  0  0
   18.5765   -1.2681   54.3376 H   0  0  0  0  0  0
   23.2549   -1.2966   54.6817 H   0  0  0  0  0  0
   25.1783   -1.1021   54.5589 H   0  0  0  0  0  0
   27.1645   -1.7682   53.7354 H   0  0  0  0  0  0
   30.2101    1.2012   53.2483 H   0  0  0  0  0  0
   28.4830    3.0179   53.3485 H   0  0  0  0  0  0
   26.1225    2.4395   53.7460 H   0  0  0  0  0  0
   12.2992   -1.8803   53.8444 H   0  0  0  0  0  0
   13.9931   -2.0821   53.4054 H   0  0  0  0  0  0
   13.3680   -0.4830   53.9103 H   0  0  0  0  0  0
   10.6110   -0.1755   48.0416 H   0  0  0  0  0  0
   12.1775    0.3587   47.5464 H   0  0  0  0  0  0
   10.9578    2.3932   47.6281 H   0  0  0  0  0  0
   11.7449    2.4443   49.1710 H   0  0  0  0  0  0
    8.8494    1.7539   48.5204 H   0  0  0  0  0  0
    9.4234    3.0924   49.4934 H   0  0  0  0  0  0
    7.3691    1.0382   50.0892 H   0  0  0  0  0  0
    7.8052    2.3358   51.1817 H   0  0  0  0  0  0
    6.7842    0.4362   52.4300 H   0  0  0  0  0  0
    7.9908   -0.6751   51.8032 H   0  0  0  0  0  0
   10.7958    1.0579   53.5713 H   0  0  0  0  0  0
   10.4308   -0.2894   52.4964 H   0  0  0  0  0  0
   10.1518    2.7206   51.7842 H   0  0  0  0  0  0
   11.3607    1.6152   51.2274 H   0  0  0  0  0  0
    8.7470   -1.0858   54.3189 H   0  0  0  0  0  0
    9.0998    0.3665   55.2735 H   0  0  0  0  0  0
    7.4446    0.0354   54.7571 H   0  0  0  0  0  0
    8.5247    1.7220   53.4037 H   0  0  0  0  0  0
  1  2  2  0  0  0
  1  4  1  0  0  0
  1 28  1  0  0  0
  2  3  1  0  0  0
  2 30  1  0  0  0
  3  6  2  0  0  0
  3 42  1  0  0  0
  4  5  2  0  0  0
  4 43  1  0  0  0
  5  6  1  0  0  0
  5 10  1  0  0  0
  6  7  1  0  0  0
  7  8  2  0  0  0
  8  9  1  0  0  0
  8 44  1  0  0  0
  9 10  2  0  0  0
 10 11  1  0  0  0
 11 12  1  0  0  0
 11 45  1  0  0  0
 12 13  2  0  0  0
 12 17  1  0  0  0
 13 14  1  0  0  0
 13 46  1  0  0  0
 14 15  2  0  0  0
 14 47  1  0  0  0
 15 16  1  0  0  0
 15 18  1  0  0  0
 16 17  2  0  0  0
 16 48  1  0  0  0
 17 49  1  0  0  0
 18 19  1  0  0  0
 18 50  1  0  0  0
 19 20  1  0  0  0
 19 21  2  0  0  0
 20 22  1  0  0  0
 20 51  1  0  0  0
 22 23  2  0  0  0
 22 27  1  0  0  0
 23 24  1  0  0  0
 23 52  1  0  0  0
 24 25  2  0  0  0
 24 41  1  0  0  0
 25 26  1  0  0  0
 25 53  1  0  0  0
 26 27  2  0  0  0
 26 54  1  0  0  0
 27 55  1  0  0  0
 28 29  1  0  0  0
 29 56  1  0  0  0
 29 57  1  0  0  0
 29 58  1  0  0  0
 30 31  1  0  0  0
 31 32  1  0  0  0
 31 59  1  0  0  0
 31 60  1  0  0  0
 32 33  1  0  0  0
 32 61  1  0  0  0
 32 62  1  0  0  0
 33 34  1  0  0  0
 33 63  1  0  0  0
 33 64  1  0  0  0
 34 35  1  0  0  0
 34 39  1  0  0  0
 35 36  1  0  0  0
 35 65  1  0  0  0
 35 66  1  0  0  0
 36 37  1  0  0  0
 36 67  1  0  0  0
 36 68  1  0  0  0
 37 38  1  0  0  0
 37 40  1  0  0  0
 37 76  1  0  0  0
 38 39  1  0  0  0
 38 69  1  0  0  0
 38 70  1  0  0  0
 39 71  1  0  0  0
 39 72  1  0  0  0
 40 73  1  0  0  0
 40 74  1  0  0  0
 40 75  1  0  0  0
M  CHG  1  37   1
M  END
> <s_m_entry_id>
451

> <s_m_entry_name>
pocket_pv.262

> <s_m_Source_Path>
/home/bortolaa/Project/GT/mario-master/docking/set505protein_struct_1_site_1_set505ligs_train

> <s_m_Source_File>
pocket_pv.maegz

> <i_m_Source_File_Index>
262

> <From>
www.bindingDB.org

> <BindingDB Reactant_set_id>
50553198

> <Ligand InChI>
InChI=1S/C30H34ClN7O3/c1-37-12-14-38(15-13-37)11-4-16-41-28-19-26-25(18-27(28)40-2)29(33-20-32-26)34-22-7-9-23(10-8-22)35-30(39)36-24-6-3-5-21(31)17-24/h3,5-10,17-20H,4,11-16H2,1-2H3,(H,32,33,34)(H2,35,36,39)

> <Ligand InChI Key>
VLPPFMGJVIPXMF-UHFFFAOYSA-N

> <BindingDB MonomerID>
50210699

> <BindingDB Ligand Name>
CHEMBL3896615

> <Target Name Assigned by Curator or DataSource>
Epidermal growth factor receptor

> <Target Source Organism According to Curator or DataSource>
Homo sapiens

> <Ki (nM)>


> <Kd (nM)>


> <EC50 (nM)>


> <kon (M-1-s-1)>


> <koff (s-1)>


> <pH>


> <Temp C>


> <Curation/DataSource>
ChEMBL

> <Article DOI>
10.1016/j.ejmech.2016.09.039

> <PubChem AID>


> <Patent Number>


> <Authors>
Zhang, HQ; Gong, FH; Ye, JQ; Zhang, C; Yue, XH; Li, CG; Xu, YG; Sun, LP

> <Institution>
China Pharmaceutical University

> <Link to Ligand in BindingDB>
http://www.bindingdb.org/bind/chemsearch/marvin/MolStructure.jsp?monomerid=50210699

> <Link to Ligand-Target Pair in BindingDB>
http://www.bindingdb.org/jsp/dbsearch/PrimarySearch_ki.jsp?energyterm=kJ/mole&tag=r21&monomerid=50210699&enzyme=Epidermal+growth+factor+receptor&column=ki&startPg=0&Increment=50&submit=Search

> <Ligand HET ID in PDB>


> <PDB ID(s) for Ligand-Target Complex>


> <PubChem CID>
134133491

> <PubChem SID>
375982703

> <ChEBI ID of Ligand>


> <ChEMBL ID of Ligand>
CHEMBL3896615

> <DrugBank ID of Ligand>


> <IUPHAR_GRAC ID of Ligand>


> <KEGG ID of Ligand>


> <ZINC ID of Ligand>


> <Number of Protein Chains in Target (>
1

> <BindingDB Target Chain Sequence>
MRPSGTAGAALLALLAALCPASRALEEKKVCQGTSNKLTQLGTFEDHFLSLQRMFNNCEVVLGNLEITYVQRNYDLSFLKTIQEVAGYVLIALNTVERIPLENLQIIRGNMYYENSYALAVLSNYDANKTGLKELPMRNLQEILHGAVRFSNNPALCNVESIQWRDIVSSDFLSNMSMDFQNHLGSCQKCDPSCPNGSCWGAGEENCQKLTKIICAQQCSGRCRGKSPSDCCHNQCAAGCTGPRESDCLVCRKFRDEATCKDTCPPLMLYNPTTYQMDVNPEGKYSFGATCVKKCPRNYVVTDHGSCVRACGADSYEMEEDGVRKCKKCEGPCRKVCNGIGIGEFKDSLSINATNIKHFKNCTSISGDLHILPVAFRGDSFTHTPPLDPQELDILKTVKEITGFLLIQAWPENRTDLHAFENLEIIRGRTKQHGQFSLAVVSLNITSLGLRSLKEISDGDVIISGNKNLCYANTINWKKLFGTSGQKTKIISNRGENSCKATGQVCHALCSPEGCWGPEPRDCVSCRNVSRGRECVDKCNLLEGEPREFVENSECIQCHPECLPQAMNITCTGRGPDNCIQCAHYIDGPHCVKTCPAGVMGENNTLVWKYADAGHVCHLCHPNCTYGCTGPGLEGCPTNGPKIPSIATGMVGALLLLLVVALGIGLFMRRRHIVRKRTLRRLLQERELVEPLTPSGEAPNQALLRILKETEFKKIKVLGSGAFGTVYKGLWIPEGEKVKIPVAIKELREATSPKANKEILDEAYVMASVDNPHVCRLLGICLTSTVQLITQLMPFGCLLDYVREHKDNIGSQYLLNWCVQIAKGMNYLEDRRLVHRDLAARNVLVKTPQHVKITDFGLAKLLGAEEKEYHAEGGKVPIKWMALESILHRIYTHQSDVWSYGVTVWELMTFGSKPYDGIPASEISSILEKGERLPQPPICTIDVYMIMVKCWMIDADSRPKFRELIIEFSKMARDPQRYLVIQGDERMHLPSPTDSNFYRALMDEEDMDDVVDADEYLIPQQGFFSSPSTSRTPLLSSLSATSNNSTVACIDRNGLQSCPIKEDSFLQRYSSDPTGALTEDSIDDTFLPVPEYINQSVPKRPAGSVQNPVYHNQPLNPAPSRDPHYQDPHSTAVGNPEYLNTVQPTCVNSTFDSPAHWAQKGSHQISLDNPDYQQDFFPKEAKPNGIFKGSTAENAEYLRVAPQSSEFIGA

> <PDB ID(s) of Target Chain>
1IVO,1M14,1M17,1MOX,1XKK,1Z9I,2GS2,2GS6,2ITW,2ITX,2ITY,2J5E,2J5F,2J6M,2RF9,2RGP,3B2V,3BEL,3GOP,3POZ,3QWQ,3VJO,3W2O,3W2P,3W2Q,3W2R,3W2S,3W32,3W33,4G5J,4I23,4JQ7,4JQ8,4JR3,4JRV,4KRO,4LI5,4RJ4,4RJ5,4RJ6,4RJ7,4RJ8,4TKS,4UIP,4UV7,4WKQ,4WRG,4ZAU,5C8K,5C8M,5C8N,5CAL,5CAN,5CAO,5CAP,5CAQ,5CAS,5CAU,5CAV,5EDP,5EDQ,5EDR,5EM5,5EM6,5EM7,5EM8,5FED,5GNK,5HCX,5HCY,5HCZ,5HIB,5HIC,5UGB,5WB7,5WB8,5Y25,6S89,6S8A

> <UniProt (SwissProt) Recommended Name of Target Chain>
Epidermal growth factor receptor

> <UniProt (SwissProt) Entry Name of Target Chain>
EGFR_HUMAN

> <UniProt (SwissProt) Primary ID of Target Chain>
P00533

> <UniProt (SwissProt) Secondary ID(s) of Target Chain>
O00688,O00732,P06268,Q14225,Q68GS5,Q92795,Q9BZS2,Q9GZX1,Q9H2C9,Q9H3C9,Q9UMD7,Q9UMD8,Q9UMG5

> <UniProt (SwissProt) Alternative ID(s) of Target Chain>


> <UniProt (TrEMBL) Submitted Name of Target Chain>


> <UniProt (TrEMBL) Entry Name of Target Chain>


> <UniProt (TrEMBL) Primary ID of Target Chain>


> <UniProt (TrEMBL) Secondary ID(s) of Target Chain>


> <UniProt (TrEMBL) Alternative ID(s) of Target Chain>


> <training label>
6.30103

> <i_lp_mmshare_version>
54117

> <s_epik_input>
W0NIMl0xW0NIMl1OKFtDSDNdKVtDSDJdW0NIMl1OMVtDSDJdW0NIMl1bQ0gyXU9jKGMoW2NIXTIpT1tDSDNdKVtjSF1jKGMyMyluW2NIXW5jM1tOSF1jNFtjSF1bY0hdYyhbY0hdW2NIXTQpW05IXUMoPU8pW05IXWM1W2NIXWMoQ2wpW2NIXVtjSF1bY0hdNQ==

> <s_epik_cmdline>
J2VwaWtfcHl0aG9uJywgJy1waHQnLCAnMC4xJywgJy1waCcsICc3LjQnLCAnLXRuJywgJzgnLCAnLW1hJywgJzIwMCcsICctaW1hZScsICc8aW5maWxlLm1hZT4nLCAnLW9tYWUnLCAnPG91dGZpbGUubWFlPic=

> <r_lp_tautomer_probability>
0.999978000241998

> <r_epik_Ionization_Penalty>
  0.0669

> <r_epik_Ionization_Penalty_Charging>
  0.0659

> <r_epik_Ionization_Penalty_Neutral>
  0.0010

> <r_epik_State_Penalty>
  0.1437

> <r_epik_Charging_Adjusted_Penalty>
0.209599309145144

> <i_epik_Tot_Q>
1

> <i_epik_Tot_abs_Q>
1

> <i_f3d_flags>
0

> <s_lp_Force_Field>
OPLS_2005

> <r_lp_Energy>
52.337984

> <b_lp_Chiralities_Consistent>
1

> <s_lp_Variant>
/home/bortolaa/Project/GT/mario-master/ligands/set505ligs_train.sdf:90-1

> <s_i_glide_gridfile>
struct_1_site_1

> <i_i_glide_lignum>
105

> <i_i_glide_rotatable_bonds>
12

> <r_i_docking_score>
-5.84303758627937

> <r_i_glide_ligand_efficiency>
-0.142513111860472

> <r_i_glide_ligand_efficiency_sa>
-0.491416168689571

> <r_i_glide_ligand_efficiency_ln>
-1.23961986866677

> <r_i_glide_gscore>
-5.98673758627937

> <r_i_glide_lipo>
-2.66444736807627

> <r_i_glide_hbond>
-0.2

> <r_i_glide_metal>
0

> <r_i_glide_rewards>
-0.198852513404203

> <r_i_glide_evdw>
-42.6546516418457

> <r_i_glide_ecoul>
-8.13200092315674

> <r_i_glide_erotb>
0.530319829055168

> <r_i_glide_esite>
-0.101224813288274

> <r_i_glide_emodel>
-19.6300493113604

> <r_i_glide_energy>
-50.7866525650024

> <r_i_glide_einternal>
13.0451850891113

> <i_i_glide_confnum>
196

> <i_i_glide_posenum>
58

> <r_i_glide_eff_state_penalty>
0.1437

> <IC50 (nM)>
500

> <PMID>
27688180

> <r_glide_shape_similarity>
0.500033795833588

> <s_m_subgroup_title>
505 training

> <s_m_subgroupid>
pocket_pv

> <b_m_subgroup_collapsed>
0

$$$$
/home/bortolaa/Project/GT/mario-master/ligands/set505ligs_train.sdf:64
                    3D
 Schrodinger Suite 2021-2.
 78 82  0  0  1  0            999 V2000
   24.1578   -0.3406   53.9784 C   0  0  0  0  0  0
   25.4712    0.2971   53.6582 C   0  0  0  0  0  0
   26.6618   -0.4643   53.6514 C   0  0  0  0  0  0
   27.9010    0.1764   53.4774 C   0  0  0  0  0  0
   27.9308    1.5821   53.3127 C   0  0  0  0  0  0
   26.7467    2.3222   53.2208 C   0  0  0  0  0  0
   25.5201    1.6861   53.4017 C   0  0  0  0  0  0
   24.0566   -1.2651   54.7857 O   0  0  0  0  0  0
   23.1640    0.2171   53.2827 N   0  0  0  0  0  0
   29.0859    2.2951   53.2931 O   0  0  0  0  0  0
   29.9161    2.0203   54.4031 C   0  0  0  0  0  0
   21.8028   -0.0983   53.2359 C   0  0  0  0  0  0
   21.1892   -1.0478   54.0777 C   0  0  0  0  0  0
   19.8218   -1.2972   53.9175 C   0  0  0  0  0  0
   19.0538   -0.6010   52.9639 C   0  0  0  0  0  0
   19.6790    0.3419   52.1184 C   0  0  0  0  0  0
   21.0507    0.5927   52.2635 C   0  0  0  0  0  0
   17.6963   -0.9358   52.9132 N   0  0  0  0  0  0
   14.4355    0.9295   51.1562 N   0  0  0  0  0  0
   15.6409    1.4873   51.2732 C   0  0  0  0  0  0
   16.7261    0.9283   51.8026 N   0  0  0  0  0  0
   16.5959   -0.3144   52.3076 C   0  0  0  0  0  0
   15.3630   -1.0094   52.2376 C   0  0  0  0  0  0
   15.1839   -2.3333   52.7162 C   0  0  0  0  0  0
   13.9444   -2.9974   52.5621 C   0  0  0  0  0  0
   12.8714   -2.3455   51.9089 C   0  0  0  0  0  0
   13.0611   -1.0145   51.4486 C   0  0  0  0  0  0
   14.2844   -0.3310   51.6171 C   0  0  0  0  0  0
   11.6898   -3.0592   51.7671 O   0  0  0  0  0  0
   10.5190   -2.3929   51.2887 C   0  0  0  0  0  0
    9.8980   -1.4791   52.3743 C   0  0  0  0  0  0
    8.9129   -0.4261   51.8145 C   0  0  0  0  0  0
    9.5584    0.5208   50.8945 N   0  0  2  0  0  0
   10.4564    1.4447   51.6039 C   0  0  0  0  0  0
   11.1840    2.3516   50.5813 C   0  0  0  0  0  0
   10.2099    3.1338   49.7747 N   0  3  0  0  0  0
    9.1814    2.2471   49.1668 C   0  0  0  0  0  0
    8.5301    1.3391   50.2367 C   0  0  0  0  0  0
   10.8610    4.0380   48.7948 C   0  0  0  0  0  0
   13.7710   -4.2922   52.9989 O   0  0  0  0  0  0
   13.8818   -4.4647   54.4072 C   0  0  0  0  0  0
   26.6263   -1.5325   53.8182 H   0  0  0  0  0  0
   28.8181   -0.3944   53.5169 H   0  0  0  0  0  0
   26.7845    3.3934   53.0803 H   0  0  0  0  0  0
   24.6318    2.3000   53.3974 H   0  0  0  0  0  0
   23.4533    0.9615   52.6654 H   0  0  0  0  0  0
   30.5604    2.8788   54.5872 H   0  0  0  0  0  0
   29.3567    1.8285   55.3205 H   0  0  0  0  0  0
   30.5512    1.1634   54.1726 H   0  0  0  0  0  0
   21.7211   -1.5916   54.8399 H   0  0  0  0  0  0
   19.3532   -2.0236   54.5655 H   0  0  0  0  0  0
   19.1419    0.8690   51.3447 H   0  0  0  0  0  0
   21.5229    1.3138   51.6112 H   0  0  0  0  0  0
   17.4545   -1.7508   53.4549 H   0  0  0  0  0  0
   15.7532    2.4872   50.8823 H   0  0  0  0  0  0
   15.9852   -2.8578   53.2174 H   0  0  0  0  0  0
   12.2775   -0.4943   50.9240 H   0  0  0  0  0  0
    9.7926   -3.1563   51.0106 H   0  0  0  0  0  0
   10.7332   -1.8573   50.3641 H   0  0  0  0  0  0
   10.6770   -0.9925   52.9567 H   0  0  0  0  0  0
    9.3725   -2.1072   53.0917 H   0  0  0  0  0  0
    8.4388    0.1197   52.6329 H   0  0  0  0  0  0
    8.1147   -0.9517   51.2891 H   0  0  0  0  0  0
   11.2069    0.9098   52.1800 H   0  0  0  0  0  0
    9.8874    2.0141   52.3338 H   0  0  0  0  0  0
   11.8456    3.0372   51.1107 H   0  0  0  0  0  0
   11.8102    1.7499   49.9201 H   0  0  0  0  0  0
    8.4171    2.8573   48.6863 H   0  0  0  0  0  0
    9.6397    1.6338   48.3892 H   0  0  0  0  0  0
    7.9890    1.9416   50.9694 H   0  0  0  0  0  0
    7.7969    0.6929   49.7538 H   0  0  0  0  0  0
   11.4186    3.4770   48.0430 H   0  0  0  0  0  0
   10.1134    4.6477   48.2866 H   0  0  0  0  0  0
   11.5525    4.7154   49.2991 H   0  0  0  0  0  0
   13.6931   -5.5085   54.6590 H   0  0  0  0  0  0
   14.8753   -4.2085   54.7751 H   0  0  0  0  0  0
   13.1354   -3.8593   54.9292 H   0  0  0  0  0  0
    9.7380    3.7436   50.4605 H   0  0  0  0  0  0
  1  2  1  0  0  0
  1  8  2  0  0  0
  1  9  1  0  0  0
  2  3  1  0  0  0
  2  7  2  0  0  0
  3  4  2  0  0  0
  3 42  1  0  0  0
  4  5  1  0  0  0
  4 43  1  0  0  0
  5  6  2  0  0  0
  5 10  1  0  0  0
  6  7  1  0  0  0
  6 44  1  0  0  0
  7 45  1  0  0  0
  9 12  1  0  0  0
  9 46  1  0  0  0
 10 11  1  0  0  0
 11 47  1  0  0  0
 11 48  1  0  0  0
 11 49  1  0  0  0
 12 13  1  0  0  0
 12 17  2  0  0  0
 13 14  2  0  0  0
 13 50  1  0  0  0
 14 15  1  0  0  0
 14 51  1  0  0  0
 15 16  2  0  0  0
 15 18  1  0  0  0
 16 17  1  0  0  0
 16 52  1  0  0  0
 17 53  1  0  0  0
 18 22  1  0  0  0
 18 54  1  0  0  0
 19 20  1  0  0  0
 19 28  2  0  0  0
 20 21  2  0  0  0
 20 55  1  0  0  0
 21 22  1  0  0  0
 22 23  2  0  0  0
 23 24  1  0  0  0
 23 28  1  0  0  0
 24 25  2  0  0  0
 24 56  1  0  0  0
 25 26  1  0  0  0
 25 40  1  0  0  0
 26 27  2  0  0  0
 26 29  1  0  0  0
 27 28  1  0  0  0
 27 57  1  0  0  0
 29 30  1  0  0  0
 30 31  1  0  0  0
 30 58  1  0  0  0
 30 59  1  0  0  0
 31 32  1  0  0  0
 31 60  1  0  0  0
 31 61  1  0  0  0
 32 33  1  0  0  0
 32 62  1  0  0  0
 32 63  1  0  0  0
 33 34  1  0  0  0
 33 38  1  0  0  0
 34 35  1  0  0  0
 34 64  1  0  0  0
 34 65  1  0  0  0
 35 36  1  0  0  0
 35 66  1  0  0  0
 35 67  1  0  0  0
 36 37  1  0  0  0
 36 39  1  0  0  0
 36 78  1  0  0  0
 37 38  1  0  0  0
 37 68  1  0  0  0
 37 69  1  0  0  0
 38 70  1  0  0  0
 38 71  1  0  0  0
 39 72  1  0  0  0
 39 73  1  0  0  0
 39 74  1  0  0  0
 40 41  1  0  0  0
 41 75  1  0  0  0
 41 76  1  0  0  0
 41 77  1  0  0  0
M  CHG  1  36   1
M  END
> <s_m_entry_id>
452

> <s_m_entry_name>
pocket_pv.263

> <s_m_Source_Path>
/home/bortolaa/Project/GT/mario-master/docking/set505protein_struct_1_site_1_set505ligs_train

> <s_m_Source_File>
pocket_pv.maegz

> <i_m_Source_File_Index>
263

> <From>
www.bindingDB.org

> <BindingDB Reactant_set_id>
50463837

> <Ligand InChI>
InChI=1S/C31H36N6O4/c1-36-14-16-37(17-15-36)13-4-18-41-29-20-27-26(19-28(29)40-3)30(33-21-32-27)34-23-7-9-24(10-8-23)35-31(38)22-5-11-25(39-2)12-6-22/h5-12,19-21H,4,13-18H2,1-3H3,(H,35,38)(H,32,33,34)

> <Ligand InChI Key>
YIQIIWTUQHYAID-UHFFFAOYSA-N

> <BindingDB MonomerID>
50144597

> <BindingDB Ligand Name>
CHEMBL3759830

> <Target Name Assigned by Curator or DataSource>
Epidermal growth factor receptor

> <Target Source Organism According to Curator or DataSource>
Homo sapiens

> <Ki (nM)>


> <IC50 (nM)>
1110

> <Kd (nM)>


> <EC50 (nM)>


> <kon (M-1-s-1)>


> <koff (s-1)>


> <pH>


> <Temp C>


> <Curation/DataSource>
ChEMBL

> <Article DOI>
10.1016/j.ejmech.2015.12.032

> <PubChem AID>


> <Patent Number>


> <Authors>
Zhang, HQ; Gong, FH; Li, CG; Zhang, C; Wang, YJ; Xu, YG; Sun, LP

> <Institution>
China Pharmaceutical University

> <Link to Ligand in BindingDB>
http://www.bindingdb.org/bind/chemsearch/marvin/MolStructure.jsp?monomerid=50144597

> <Link to Ligand-Target Pair in BindingDB>
http://www.bindingdb.org/jsp/dbsearch/PrimarySearch_ki.jsp?energyterm=kJ/mole&tag=r21&monomerid=50144597&enzyme=Epidermal+growth+factor+receptor&column=ki&startPg=0&Increment=50&submit=Search

> <Ligand HET ID in PDB>


> <PDB ID(s) for Ligand-Target Complex>


> <PubChem CID>
3009564

> <PubChem SID>
85414763

> <ChEBI ID of Ligand>


> <ChEMBL ID of Ligand>
CHEMBL3759830

> <DrugBank ID of Ligand>


> <IUPHAR_GRAC ID of Ligand>


> <KEGG ID of Ligand>


> <ZINC ID of Ligand>


> <Number of Protein Chains in Target (>
1

> <BindingDB Target Chain Sequence>
MRPSGTAGAALLALLAALCPASRALEEKKVCQGTSNKLTQLGTFEDHFLSLQRMFNNCEVVLGNLEITYVQRNYDLSFLKTIQEVAGYVLIALNTVERIPLENLQIIRGNMYYENSYALAVLSNYDANKTGLKELPMRNLQEILHGAVRFSNNPALCNVESIQWRDIVSSDFLSNMSMDFQNHLGSCQKCDPSCPNGSCWGAGEENCQKLTKIICAQQCSGRCRGKSPSDCCHNQCAAGCTGPRESDCLVCRKFRDEATCKDTCPPLMLYNPTTYQMDVNPEGKYSFGATCVKKCPRNYVVTDHGSCVRACGADSYEMEEDGVRKCKKCEGPCRKVCNGIGIGEFKDSLSINATNIKHFKNCTSISGDLHILPVAFRGDSFTHTPPLDPQELDILKTVKEITGFLLIQAWPENRTDLHAFENLEIIRGRTKQHGQFSLAVVSLNITSLGLRSLKEISDGDVIISGNKNLCYANTINWKKLFGTSGQKTKIISNRGENSCKATGQVCHALCSPEGCWGPEPRDCVSCRNVSRGRECVDKCNLLEGEPREFVENSECIQCHPECLPQAMNITCTGRGPDNCIQCAHYIDGPHCVKTCPAGVMGENNTLVWKYADAGHVCHLCHPNCTYGCTGPGLEGCPTNGPKIPSIATGMVGALLLLLVVALGIGLFMRRRHIVRKRTLRRLLQERELVEPLTPSGEAPNQALLRILKETEFKKIKVLGSGAFGTVYKGLWIPEGEKVKIPVAIKELREATSPKANKEILDEAYVMASVDNPHVCRLLGICLTSTVQLITQLMPFGCLLDYVREHKDNIGSQYLLNWCVQIAKGMNYLEDRRLVHRDLAARNVLVKTPQHVKITDFGLAKLLGAEEKEYHAEGGKVPIKWMALESILHRIYTHQSDVWSYGVTVWELMTFGSKPYDGIPASEISSILEKGERLPQPPICTIDVYMIMVKCWMIDADSRPKFRELIIEFSKMARDPQRYLVIQGDERMHLPSPTDSNFYRALMDEEDMDDVVDADEYLIPQQGFFSSPSTSRTPLLSSLSATSNNSTVACIDRNGLQSCPIKEDSFLQRYSSDPTGALTEDSIDDTFLPVPEYINQSVPKRPAGSVQNPVYHNQPLNPAPSRDPHYQDPHSTAVGNPEYLNTVQPTCVNSTFDSPAHWAQKGSHQISLDNPDYQQDFFPKEAKPNGIFKGSTAENAEYLRVAPQSSEFIGA

> <PDB ID(s) of Target Chain>
1IVO,1M14,1M17,1MOX,1XKK,1Z9I,2GS2,2GS6,2ITW,2ITX,2ITY,2J5E,2J5F,2J6M,2RF9,2RGP,3B2V,3BEL,3GOP,3POZ,3QWQ,3VJO,3W2O,3W2P,3W2Q,3W2R,3W2S,3W32,3W33,4G5J,4I23,4JQ7,4JQ8,4JR3,4JRV,4KRO,4LI5,4RJ4,4RJ5,4RJ6,4RJ7,4RJ8,4TKS,4UIP,4UV7,4WKQ,4WRG,4ZAU,5C8K,5C8M,5C8N,5CAL,5CAN,5CAO,5CAP,5CAQ,5CAS,5CAU,5CAV,5EDP,5EDQ,5EDR,5EM5,5EM6,5EM7,5EM8,5FED,5GNK,5HCX,5HCY,5HCZ,5HIB,5HIC,5UGB,5WB7,5WB8,5Y25,6S89,6S8A

> <UniProt (SwissProt) Recommended Name of Target Chain>
Epidermal growth factor receptor

> <UniProt (SwissProt) Entry Name of Target Chain>
EGFR_HUMAN

> <UniProt (SwissProt) Primary ID of Target Chain>
P00533

> <UniProt (SwissProt) Secondary ID(s) of Target Chain>
O00688,O00732,P06268,Q14225,Q68GS5,Q92795,Q9BZS2,Q9GZX1,Q9H2C9,Q9H3C9,Q9UMD7,Q9UMD8,Q9UMG5

> <UniProt (SwissProt) Alternative ID(s) of Target Chain>


> <UniProt (TrEMBL) Submitted Name of Target Chain>


> <UniProt (TrEMBL) Entry Name of Target Chain>


> <UniProt (TrEMBL) Primary ID of Target Chain>


> <UniProt (TrEMBL) Secondary ID(s) of Target Chain>


> <UniProt (TrEMBL) Alternative ID(s) of Target Chain>


> <training label>
5.95468

> <i_lp_mmshare_version>
54117

> <s_epik_input>
W2NIXTFbY0hdYyhPW0NIM10pW2NIXVtjSF1jMUMoPU8pW05IXWMyW2NIXVtjSF1jKFtjSF1bY0hdMilbTkhdYzNuW2NIXW5jKGMzNClbY0hdYyhjKFtjSF00KU9bQ0gzXSlPW0NIMl1bQ0gyXVtDSDJdTjVbQ0gyXVtDSDJdTihbQ0gzXSlbQ0gyXVtDSDJdNQ==

> <s_epik_cmdline>
J2VwaWtfcHl0aG9uJywgJy1waHQnLCAnMC4xJywgJy1waCcsICc3LjQnLCAnLXRuJywgJzgnLCAnLW1hJywgJzIwMCcsICctaW1hZScsICc8aW5maWxlLm1hZT4nLCAnLW9tYWUnLCAnPG91dGZpbGUubWFlPic=

> <r_lp_tautomer_probability>
0.999978000241998

> <r_epik_Ionization_Penalty>
  0.0669

> <r_epik_Ionization_Penalty_Charging>
  0.0659

> <r_epik_Ionization_Penalty_Neutral>
  0.0010

> <r_epik_State_Penalty>
  0.1437

> <r_epik_Charging_Adjusted_Penalty>
0.209599309145144

> <i_epik_Tot_Q>
1

> <i_epik_Tot_abs_Q>
1

> <i_f3d_flags>
0

> <s_lp_Force_Field>
OPLS_2005

> <r_lp_Energy>
54.736445

> <b_lp_Chiralities_Consistent>
1

> <s_lp_Variant>
/home/bortolaa/Project/GT/mario-master/ligands/set505ligs_train.sdf:64-1

> <s_i_glide_gridfile>
struct_1_site_1

> <i_i_glide_lignum>
64

> <i_i_glide_rotatable_bonds>
12

> <r_i_docking_score>
-5.84246335376352

> <r_i_glide_ligand_efficiency>
-0.142499106189354

> <r_i_glide_ligand_efficiency_sa>
-0.491367874093017

> <r_i_glide_ligand_efficiency_ln>
-1.23949804332758

> <r_i_glide_gscore>
-5.98616335376352

> <r_i_glide_lipo>
-2.22365294817295

> <r_i_glide_hbond>
-0.2

> <r_i_glide_metal>
0

> <r_i_glide_rewards>
-0.360923566839589

> <r_i_glide_evdw>
-42.3918418884277

> <r_i_glide_ecoul>
-10.5163841247559

> <r_i_glide_erotb>
0.590980879971816

> <r_i_glide_esite>
-0.0955180055880301

> <r_i_glide_emodel>
-18.2965606494733

> <r_i_glide_energy>
-52.9082260131836

> <r_i_glide_einternal>
10.5770530700684

> <i_i_glide_confnum>
11

> <i_i_glide_posenum>
22

> <r_i_glide_eff_state_penalty>
0.1437

> <PMID>
26826581

> <r_glide_shape_similarity>
0.48361724615097

> <s_m_subgroup_title>
505 training

> <s_m_subgroupid>
pocket_pv

> <b_m_subgroup_collapsed>
0

$$$$
BindingDB_50444634_mol_1
                    3D
 Schrodinger Suite 2021-2.
 37 39  0  0  1  0            999 V2000
   21.6446    0.4601   52.6671 C   0  0  0  0  0  0
   19.8090    1.1387   51.1860 C   0  0  0  0  0  0
   22.4477   -1.1161   54.6532 C   0  0  0  0  0  0
   23.0914   -2.0660   55.8662 Cl  0  0  0  0  0  0
   22.9910    0.4645   53.1371 C   0  0  0  0  0  0
   21.1709   -1.2012   54.3394 N   0  0  0  0  0  0
   28.2007    0.9329   53.4837 C   0  0  0  0  0  0
   21.1693    1.2217   51.5803 C   0  0  0  0  0  0
   23.3472   -0.3363   54.1292 N   0  0  0  0  0  0
   20.7513   -0.4074   53.3461 C   0  0  0  0  0  0
   27.5897    2.1959   53.4256 C   0  0  0  0  0  0
   29.5367    0.8024   53.6828 O   0  0  0  0  0  0
   26.0606   -0.1210   53.0635 C   0  0  0  0  0  0
   27.4366   -0.2240   53.3180 C   0  0  0  0  0  0
   19.4029   -0.4510   52.9785 C   0  0  0  0  0  0
   18.9148    0.3309   51.9203 C   0  0  0  0  0  0
   24.0472    1.2644   52.6742 N   0  0  0  0  0  0
   25.4205    1.1374   52.9948 C   0  0  0  0  0  0
   26.2046    2.2891   53.1964 C   0  0  0  0  0  0
   19.2685    1.8118   50.1110 O   0  0  0  0  0  0
   20.1135    2.5782   49.2764 C   0  0  0  0  0  0
   17.5868    0.3497   51.5485 O   0  0  0  0  0  0
   16.6272   -0.2980   52.3683 C   0  0  0  0  0  0
   21.8637    1.8507   51.0494 H   0  0  0  0  0  0
   28.1715    3.0970   53.5511 H   0  0  0  0  0  0
   30.0392    1.6061   53.6113 H   0  0  0  0  0  0
   25.4973   -1.0276   52.8929 H   0  0  0  0  0  0
   27.9097   -1.1975   53.3602 H   0  0  0  0  0  0
   18.7537   -1.1026   53.5450 H   0  0  0  0  0  0
   23.7748    2.1418   52.2657 H   0  0  0  0  0  0
   25.7536    3.2700   53.1413 H   0  0  0  0  0  0
   19.5264    2.9965   48.4599 H   0  0  0  0  0  0
   20.9043    1.9636   48.8395 H   0  0  0  0  0  0
   20.5639    3.4059   49.8285 H   0  0  0  0  0  0
   15.6312   -0.1067   51.9699 H   0  0  0  0  0  0
   16.7711   -1.3782   52.3737 H   0  0  0  0  0  0
   16.6493    0.0748   53.3910 H   0  0  0  0  0  0
  1  5  1  0  0  0
  1  8  2  0  0  0
  1 10  1  0  0  0
  2  8  1  0  0  0
  2 16  2  0  0  0
  2 20  1  0  0  0
  3  4  1  0  0  0
  3  6  2  0  0  0
  3  9  1  0  0  0
  5  9  2  0  0  0
  5 17  1  0  0  0
  6 10  1  0  0  0
  7 11  2  0  0  0
  7 12  1  0  0  0
  7 14  1  0  0  0
  8 24  1  0  0  0
 10 15  2  0  0  0
 11 19  1  0  0  0
 11 25  1  0  0  0
 12 26  1  0  0  0
 13 14  2  0  0  0
 13 18  1  0  0  0
 13 27  1  0  0  0
 14 28  1  0  0  0
 15 16  1  0  0  0
 15 29  1  0  0  0
 16 22  1  0  0  0
 17 18  1  0  0  0
 17 30  1  0  0  0
 18 19  2  0  0  0
 19 31  1  0  0  0
 20 21  1  0  0  0
 21 32  1  0  0  0
 21 33  1  0  0  0
 21 34  1  0  0  0
 22 23  1  0  0  0
 23 35  1  0  0  0
 23 36  1  0  0  0
 23 37  1  0  0  0
M  END
> <s_m_entry_id>
453

> <s_m_entry_name>
pocket_pv.264

> <s_m_Source_Path>
/home/bortolaa/Project/GT/mario-master/docking/set505protein_struct_1_site_1_set505ligs_train

> <s_m_Source_File>
pocket_pv.maegz

> <i_m_Source_File_Index>
264

> <From>
www.bindingDB.org

> <BindingDB Reactant_set_id>
51086574

> <Ligand InChI>
InChI=1S/C16H14ClN3O3/c1-22-13-7-11-12(8-14(13)23-2)19-16(17)20-15(11)18-9-3-5-10(21)6-4-9/h3-8,21H,1-2H3,(H,18,19,20)

> <Ligand InChI Key>
GADDOFDYJUJMFY-UHFFFAOYSA-N

> <BindingDB MonomerID>
50444634

> <BindingDB Ligand Name>
CHEMBL3098322

> <Target Name Assigned by Curator or DataSource>
Epidermal growth factor receptor

> <Target Source Organism According to Curator or DataSource>
Homo sapiens

> <Ki (nM)>


> <IC50 (nM)>
4300

> <Kd (nM)>


> <EC50 (nM)>


> <kon (M-1-s-1)>


> <koff (s-1)>


> <pH>


> <Temp C>


> <Curation/DataSource>
ChEMBL

> <Article DOI>
10.1016/j.ejmech.2013.10.058

> <PubChem AID>


> <Patent Number>


> <Authors>
Barbosa, ML; Lima, LM; Tesch, R; Sant'Anna, CM; Totzke, F; Kubbutat, MH; Schachtele, C; Laufer, SA; Barreiro, EJ

> <Institution>
Federal University of Rio de Janeiro

> <Link to Ligand in BindingDB>
http://www.bindingdb.org/bind/chemsearch/marvin/MolStructure.jsp?monomerid=50444634

> <Link to Ligand-Target Pair in BindingDB>
http://www.bindingdb.org/jsp/dbsearch/PrimarySearch_ki.jsp?energyterm=kJ/mole&tag=r21&monomerid=50444634&enzyme=Epidermal+growth+factor+receptor&column=ki&startPg=0&Increment=50&submit=Search

> <Ligand HET ID in PDB>


> <PDB ID(s) for Ligand-Target Complex>


> <PubChem CID>
22692946

> <PubChem SID>
194942530

> <ChEBI ID of Ligand>


> <ChEMBL ID of Ligand>
CHEMBL3098322

> <DrugBank ID of Ligand>


> <IUPHAR_GRAC ID of Ligand>


> <KEGG ID of Ligand>


> <ZINC ID of Ligand>


> <Number of Protein Chains in Target (>
1

> <BindingDB Target Chain Sequence>
MRPSGTAGAALLALLAALCPASRALEEKKVCQGTSNKLTQLGTFEDHFLSLQRMFNNCEVVLGNLEITYVQRNYDLSFLKTIQEVAGYVLIALNTVERIPLENLQIIRGNMYYENSYALAVLSNYDANKTGLKELPMRNLQEILHGAVRFSNNPALCNVESIQWRDIVSSDFLSNMSMDFQNHLGSCQKCDPSCPNGSCWGAGEENCQKLTKIICAQQCSGRCRGKSPSDCCHNQCAAGCTGPRESDCLVCRKFRDEATCKDTCPPLMLYNPTTYQMDVNPEGKYSFGATCVKKCPRNYVVTDHGSCVRACGADSYEMEEDGVRKCKKCEGPCRKVCNGIGIGEFKDSLSINATNIKHFKNCTSISGDLHILPVAFRGDSFTHTPPLDPQELDILKTVKEITGFLLIQAWPENRTDLHAFENLEIIRGRTKQHGQFSLAVVSLNITSLGLRSLKEISDGDVIISGNKNLCYANTINWKKLFGTSGQKTKIISNRGENSCKATGQVCHALCSPEGCWGPEPRDCVSCRNVSRGRECVDKCNLLEGEPREFVENSECIQCHPECLPQAMNITCTGRGPDNCIQCAHYIDGPHCVKTCPAGVMGENNTLVWKYADAGHVCHLCHPNCTYGCTGPGLEGCPTNGPKIPSIATGMVGALLLLLVVALGIGLFMRRRHIVRKRTLRRLLQERELVEPLTPSGEAPNQALLRILKETEFKKIKVLGSGAFGTVYKGLWIPEGEKVKIPVAIKELREATSPKANKEILDEAYVMASVDNPHVCRLLGICLTSTVQLITQLMPFGCLLDYVREHKDNIGSQYLLNWCVQIAKGMNYLEDRRLVHRDLAARNVLVKTPQHVKITDFGLAKLLGAEEKEYHAEGGKVPIKWMALESILHRIYTHQSDVWSYGVTVWELMTFGSKPYDGIPASEISSILEKGERLPQPPICTIDVYMIMVKCWMIDADSRPKFRELIIEFSKMARDPQRYLVIQGDERMHLPSPTDSNFYRALMDEEDMDDVVDADEYLIPQQGFFSSPSTSRTPLLSSLSATSNNSTVACIDRNGLQSCPIKEDSFLQRYSSDPTGALTEDSIDDTFLPVPEYINQSVPKRPAGSVQNPVYHNQPLNPAPSRDPHYQDPHSTAVGNPEYLNTVQPTCVNSTFDSPAHWAQKGSHQISLDNPDYQQDFFPKEAKPNGIFKGSTAENAEYLRVAPQSSEFIGA

> <PDB ID(s) of Target Chain>
1IVO,1M14,1M17,1MOX,1XKK,1Z9I,2GS2,2GS6,2ITW,2ITX,2ITY,2J5E,2J5F,2J6M,2RF9,2RGP,3B2V,3BEL,3GOP,3POZ,3QWQ,3VJO,3W2O,3W2P,3W2Q,3W2R,3W2S,3W32,3W33,4G5J,4I23,4JQ7,4JQ8,4JR3,4JRV,4KRO,4LI5,4RJ4,4RJ5,4RJ6,4RJ7,4RJ8,4TKS,4UIP,4UV7,4WKQ,4WRG,4ZAU,5C8K,5C8M,5C8N,5CAL,5CAN,5CAO,5CAP,5CAQ,5CAS,5CAU,5CAV,5EDP,5EDQ,5EDR,5EM5,5EM6,5EM7,5EM8,5FED,5GNK,5HCX,5HCY,5HCZ,5HIB,5HIC,5UGB,5WB7,5WB8,5Y25,6S89,6S8A

> <UniProt (SwissProt) Recommended Name of Target Chain>
Epidermal growth factor receptor

> <UniProt (SwissProt) Entry Name of Target Chain>
EGFR_HUMAN

> <UniProt (SwissProt) Primary ID of Target Chain>
P00533

> <UniProt (SwissProt) Secondary ID(s) of Target Chain>
O00688,O00732,P06268,Q14225,Q68GS5,Q92795,Q9BZS2,Q9GZX1,Q9H2C9,Q9H3C9,Q9UMD7,Q9UMD8,Q9UMG5

> <UniProt (SwissProt) Alternative ID(s) of Target Chain>


> <UniProt (TrEMBL) Submitted Name of Target Chain>


> <UniProt (TrEMBL) Entry Name of Target Chain>


> <UniProt (TrEMBL) Primary ID of Target Chain>


> <UniProt (TrEMBL) Secondary ID(s) of Target Chain>


> <UniProt (TrEMBL) Alternative ID(s) of Target Chain>


> <training label>
5.36653

> <i_lp_mmshare_version>
54117

> <s_epik_input>
W0NIM11PYyhbY0hdMSljKE9bQ0gzXSlbY0hdYyhjMTIpbmMoQ2wpbmMyW05IXWMoW2NIXVtjSF0zKVtjSF1bY0hdYzNbT0hd

> <s_epik_cmdline>
J2VwaWtfcHl0aG9uJywgJy1waHQnLCAnMC4xJywgJy1waCcsICc3LjQnLCAnLXRuJywgJzgnLCAnLW1hJywgJzIwMCcsICctaW1hZScsICc8aW5maWxlLm1hZT4nLCAnLW9tYWUnLCAnPG91dGZpbGUubWFlPic=

> <r_lp_tautomer_probability>
1

> <r_epik_Ionization_Penalty>
  0.0003

> <r_epik_Ionization_Penalty_Charging>
  0.0000

> <r_epik_Ionization_Penalty_Neutral>
  0.0003

> <r_epik_State_Penalty>
  0.0000

> <r_epik_Charging_Adjusted_Penalty>
0

> <i_epik_Tot_Q>
0

> <i_epik_Tot_abs_Q>
0

> <i_f3d_flags>
0

> <s_lp_Force_Field>
OPLS_2005

> <r_lp_Energy>
20.052005

> <b_lp_Chiralities_Consistent>
1

> <s_lp_Variant>
BindingDB_50444634_mol_1-1

> <s_i_glide_gridfile>
struct_1_site_1

> <i_i_glide_lignum>
43

> <i_i_glide_rotatable_bonds>
5

> <r_i_docking_score>
-5.83437097210872

> <r_i_glide_ligand_efficiency>
-0.253668303135162

> <r_i_glide_ligand_efficiency_sa>
-0.721398910367083

> <r_i_glide_ligand_efficiency_ln>
-1.41080380420696

> <r_i_glide_gscore>
-5.83437097210872

> <r_i_glide_lipo>
-2.321409869248

> <r_i_glide_hbond>
-0.0562840053012138

> <r_i_glide_metal>
0

> <r_i_glide_rewards>
-1.56787079053354

> <r_i_glide_evdw>
-35.7825317382812

> <r_i_glide_ecoul>
-2.94515585899353

> <r_i_glide_erotb>
0.342093658737133

> <r_i_glide_esite>
0

> <r_i_glide_emodel>
-29.0733628391756

> <r_i_glide_energy>
-38.7276875972748

> <r_i_glide_einternal>
2.13505077362061

> <i_i_glide_confnum>
5

> <i_i_glide_posenum>
11

> <r_i_glide_eff_state_penalty>
0

> <PMID>
24269511

> <r_glide_shape_similarity>
0.748475015163422

> <s_m_subgroup_title>
505 training

> <s_m_subgroupid>
pocket_pv

> <b_m_subgroup_collapsed>
0

$$$$
4-Anilidoquinazoline
                    3D
 Schrodinger Suite 2021-2.
 36 38  0  0  1  0            999 V2000
   21.3874    1.1018   51.7435 C   0  0  0  0  0  0
   20.0202    1.0611   51.3667 C   0  0  0  0  0  0
   19.5891   -0.4898   53.1812 C   0  0  0  0  0  0
   21.8578    0.3293   52.8266 C   0  0  0  0  0  0
   20.9461   -0.4972   53.5267 C   0  0  0  0  0  0
   23.2108    0.2953   53.2751 C   0  0  0  0  0  0
   23.5731   -0.5110   54.2621 N   0  0  0  0  0  0
   21.3576   -1.2811   54.5290 N   0  0  0  0  0  0
   24.2431    1.1124   52.7989 N   0  0  0  0  0  0
   25.6179    1.0811   53.1228 C   0  0  0  0  0  0
   26.2811    2.3098   53.2634 C   0  0  0  0  0  0
   23.9309    1.9637   52.3659 H   0  0  0  0  0  0
   27.6721    2.3668   53.4335 C   0  0  0  0  0  0
   28.4304    1.1928   53.4840 C   0  0  0  0  0  0
   26.3869   -0.1043   53.2060 C   0  0  0  0  0  0
   19.1134    0.2826   52.1098 C   0  0  0  0  0  0
   17.7890    0.3192   51.7275 O   0  0  0  0  0  0
   16.8313   -0.4069   52.4776 C   0  0  0  0  0  0
   19.4836    1.7485   50.3000 O   0  0  0  0  0  0
   20.3481    2.4090   49.3999 C   0  0  0  0  0  0
   27.7862   -0.0442   53.3741 C   0  0  0  0  0  0
   28.7338   -1.4762   53.3743 Cl  0  0  0  0  0  0
   22.6413   -1.2320   54.8306 C   0  0  0  0  0  0
   23.1896   -2.0660   56.1732 Cl  0  0  0  0  0  0
   22.0881    1.7116   51.1942 H   0  0  0  0  0  0
   18.9259   -1.1117   53.7617 H   0  0  0  0  0  0
   25.7329    3.2406   53.2013 H   0  0  0  0  0  0
   28.1584    3.3283   53.5173 H   0  0  0  0  0  0
   29.5044    1.2449   53.6010 H   0  0  0  0  0  0
   25.9145   -1.0671   53.0789 H   0  0  0  0  0  0
   15.8450   -0.2566   52.0418 H   0  0  0  0  0  0
   17.0379   -1.4762   52.4589 H   0  0  0  0  0  0
   16.7885   -0.0720   53.5119 H   0  0  0  0  0  0
   19.7641    2.8239   48.5781 H   0  0  0  0  0  0
   21.0789    1.7204   48.9734 H   0  0  0  0  0  0
   20.8706    3.2336   49.8863 H   0  0  0  0  0  0
  1  2  1  0  0  0
  1  4  2  0  0  0
  1 25  1  0  0  0
  2 16  2  0  0  0
  2 19  1  0  0  0
  3  5  2  0  0  0
  3 16  1  0  0  0
  3 26  1  0  0  0
  4  5  1  0  0  0
  4  6  1  0  0  0
  5  8  1  0  0  0
  6  7  2  0  0  0
  6  9  1  0  0  0
  7 23  1  0  0  0
  8 23  2  0  0  0
  9 10  1  0  0  0
  9 12  1  0  0  0
 10 11  2  0  0  0
 10 15  1  0  0  0
 11 13  1  0  0  0
 11 27  1  0  0  0
 13 14  2  0  0  0
 13 28  1  0  0  0
 14 21  1  0  0  0
 14 29  1  0  0  0
 15 21  2  0  0  0
 15 30  1  0  0  0
 16 17  1  0  0  0
 17 18  1  0  0  0
 18 31  1  0  0  0
 18 32  1  0  0  0
 18 33  1  0  0  0
 19 20  1  0  0  0
 20 34  1  0  0  0
 20 35  1  0  0  0
 20 36  1  0  0  0
 21 22  1  0  0  0
 23 24  1  0  0  0
M  END
> <s_m_entry_id>
454

> <s_m_entry_name>
pocket_pv.265

> <s_m_Source_Path>
/home/bortolaa/Project/GT/mario-master/docking/set505protein_struct_1_site_1_set505ligs_train

> <s_m_Source_File>
pocket_pv.maegz

> <i_m_Source_File_Index>
265

> <From>
www.bindingDB.org

> <BindingDB Reactant_set_id>
6607

> <Ligand InChI>
InChI=1S/C16H13Cl2N3O2/c1-22-13-7-11-12(8-14(13)23-2)20-16(18)21-15(11)19-10-5-3-4-9(17)6-10/h3-8H,1-2H3,(H,19,20,21)

> <Ligand InChI Key>
URYKHFOATQIJDL-UHFFFAOYSA-N

> <BindingDB MonomerID>
4420

> <BindingDB Ligand Name>
2-chloro-N-(3-chlorophenyl)-6,7-dimethoxyquinazolin-4-amine::4-Anilidoquinazoline deriv. 36b

> <Target Name Assigned by Curator or DataSource>
Epidermal growth factor receptor

> <Target Source Organism According to Curator or DataSource>
Homo sapiens

> <Ki (nM)>


> <IC50 (nM)>
2800

> <Kd (nM)>


> <EC50 (nM)>


> <kon (M-1-s-1)>


> <koff (s-1)>


> <pH>


> <Temp C>


> <Curation/DataSource>
Curated from the literature by BindingDB

> <Article DOI>
10.1021/jm050101d

> <PubChem AID>


> <Patent Number>


> <Authors>
Gazit, A; Chen, J; App, H; McMahon, G; Hirth, P; Chen, I; Levitzki, A

> <Institution>
Hebrew University of Jerusalem

> <Link to Ligand in BindingDB>
http://www.bindingdb.org/bind/chemsearch/marvin/MolStructure.jsp?monomerid=4420

> <Link to Ligand-Target Pair in BindingDB>
http://www.bindingdb.org/jsp/dbsearch/PrimarySearch_ki.jsp?energyterm=kJ/mole&tag=r21&monomerid=4420&enzyme=Epidermal+growth+factor+receptor&column=ki&startPg=0&Increment=50&submit=Search

> <Ligand HET ID in PDB>


> <PDB ID(s) for Ligand-Target Complex>


> <PubChem CID>
5328834

> <PubChem SID>
8034089

> <ChEBI ID of Ligand>


> <ChEMBL ID of Ligand>


> <DrugBank ID of Ligand>


> <IUPHAR_GRAC ID of Ligand>


> <KEGG ID of Ligand>


> <ZINC ID of Ligand>
ZINC11756227

> <Number of Protein Chains in Target (>
1

> <BindingDB Target Chain Sequence>
MRPSGTAGAALLALLAALCPASRALEEKKVCQGTSNKLTQLGTFEDHFLSLQRMFNNCEVVLGNLEITYVQRNYDLSFLKTIQEVAGYVLIALNTVERIPLENLQIIRGNMYYENSYALAVLSNYDANKTGLKELPMRNLQEILHGAVRFSNNPALCNVESIQWRDIVSSDFLSNMSMDFQNHLGSCQKCDPSCPNGSCWGAGEENCQKLTKIICAQQCSGRCRGKSPSDCCHNQCAAGCTGPRESDCLVCRKFRDEATCKDTCPPLMLYNPTTYQMDVNPEGKYSFGATCVKKCPRNYVVTDHGSCVRACGADSYEMEEDGVRKCKKCEGPCRKVCNGIGIGEFKDSLSINATNIKHFKNCTSISGDLHILPVAFRGDSFTHTPPLDPQELDILKTVKEITGFLLIQAWPENRTDLHAFENLEIIRGRTKQHGQFSLAVVSLNITSLGLRSLKEISDGDVIISGNKNLCYANTINWKKLFGTSGQKTKIISNRGENSCKATGQVCHALCSPEGCWGPEPRDCVSCRNVSRGRECVDKCNLLEGEPREFVENSECIQCHPECLPQAMNITCTGRGPDNCIQCAHYIDGPHCVKTCPAGVMGENNTLVWKYADAGHVCHLCHPNCTYGCTGPGLEGCPTNGPKIPSIATGMVGALLLLLVVALGIGLFMRRRHIVRKRTLRRLLQERELVEPLTPSGEAPNQALLRILKETEFKKIKVLGSGAFGTVYKGLWIPEGEKVKIPVAIKELREATSPKANKEILDEAYVMASVDNPHVCRLLGICLTSTVQLITQLMPFGCLLDYVREHKDNIGSQYLLNWCVQIAKGMNYLEDRRLVHRDLAARNVLVKTPQHVKITDFGLAKLLGAEEKEYHAEGGKVPIKWMALESILHRIYTHQSDVWSYGVTVWELMTFGSKPYDGIPASEISSILEKGERLPQPPICTIDVYMIMVKCWMIDADSRPKFRELIIEFSKMARDPQRYLVIQGDERMHLPSPTDSNFYRALMDEEDMDDVVDADEYLIPQQGFFSSPSTSRTPLLSSLSATSNNSTVACIDRNGLQSCPIKEDSFLQRYSSDPTGALTEDSIDDTFLPVPEYINQSVPKRPAGSVQNPVYHNQPLNPAPSRDPHYQDPHSTAVGNPEYLNTVQPTCVNSTFDSPAHWAQKGSHQISLDNPDYQQDFFPKEAKPNGIFKGSTAENAEYLRVAPQSSEFIGA

> <PDB ID(s) of Target Chain>
1IVO,1M14,1M17,1MOX,1XKK,1Z9I,2GS2,2GS6,2ITW,2ITX,2ITY,2J5E,2J5F,2J6M,2RF9,2RGP,3B2V,3BEL,3GOP,3POZ,3QWQ,3VJO,3W2O,3W2P,3W2Q,3W2R,3W2S,3W32,3W33,4G5J,4I23,4JQ7,4JQ8,4JR3,4JRV,4KRO,4LI5,4RJ4,4RJ5,4RJ6,4RJ7,4RJ8,4TKS,4UIP,4UV7,4WKQ,4WRG,4ZAU,5C8K,5C8M,5C8N,5CAL,5CAN,5CAO,5CAP,5CAQ,5CAS,5CAU,5CAV,5EDP,5EDQ,5EDR,5EM5,5EM6,5EM7,5EM8,5FED,5GNK,5HCX,5HCY,5HCZ,5HIB,5HIC,5UGB,5WB7,5WB8,5Y25,6S89,6S8A

> <UniProt (SwissProt) Recommended Name of Target Chain>
Epidermal growth factor receptor

> <UniProt (SwissProt) Entry Name of Target Chain>
EGFR_HUMAN

> <UniProt (SwissProt) Primary ID of Target Chain>
P00533

> <UniProt (SwissProt) Secondary ID(s) of Target Chain>
O00688,O00732,P06268,Q14225,Q68GS5,Q92795,Q9BZS2,Q9GZX1,Q9H2C9,Q9H3C9,Q9UMD7,Q9UMD8,Q9UMG5

> <UniProt (SwissProt) Alternative ID(s) of Target Chain>


> <UniProt (TrEMBL) Submitted Name of Target Chain>


> <UniProt (TrEMBL) Entry Name of Target Chain>


> <UniProt (TrEMBL) Primary ID of Target Chain>


> <UniProt (TrEMBL) Secondary ID(s) of Target Chain>


> <UniProt (TrEMBL) Alternative ID(s) of Target Chain>


> <training label>
5.55284

> <i_lp_mmshare_version>
54117

> <s_epik_input>
W0NIM11PYyhbY0hdMSljKE9bQ0gzXSlbY0hdYyhjMTIpbmMoQ2wpbmMyW05IXWMzW2NIXVtjSF1bY0hdYyhDbClbY0hdMw==

> <s_epik_cmdline>
J2VwaWtfcHl0aG9uJywgJy1waHQnLCAnMC4xJywgJy1waCcsICc3LjQnLCAnLXRuJywgJzgnLCAnLW1hJywgJzIwMCcsICctaW1hZScsICc8aW5maWxlLm1hZT4nLCAnLW9tYWUnLCAnPG91dGZpbGUubWFlPic=

> <r_lp_tautomer_probability>
1

> <r_epik_Ionization_Penalty>
  0.0000

> <r_epik_Ionization_Penalty_Charging>
  0.0000

> <r_epik_Ionization_Penalty_Neutral>
  0.0000

> <r_epik_State_Penalty>
  0.0000

> <r_epik_Charging_Adjusted_Penalty>
0

> <i_epik_Tot_Q>
0

> <i_epik_Tot_abs_Q>
0

> <i_f3d_flags>
0

> <s_lp_Force_Field>
OPLS_2005

> <r_lp_Energy>
19.534028

> <b_lp_Chiralities_Consistent>
1

> <s_lp_Variant>
4-Anilidoquinazoline-1

> <s_i_glide_gridfile>
struct_1_site_1

> <i_i_glide_lignum>
52

> <i_i_glide_rotatable_bonds>
4

> <r_i_docking_score>
-5.83197226575509

> <r_i_glide_ligand_efficiency>
-0.253564011554569

> <r_i_glide_ligand_efficiency_sa>
-0.721102318985069

> <r_i_glide_ligand_efficiency_ln>
-1.41022377526038

> <r_i_glide_gscore>
-5.83197226575509

> <r_i_glide_lipo>
-2.7277919363543

> <r_i_glide_hbond>
0

> <r_i_glide_metal>
0

> <r_i_glide_rewards>
-1.46347036443064

> <r_i_glide_evdw>
-33.920280456543

> <r_i_glide_ecoul>
-1.70328843593597

> <r_i_glide_erotb>
0.3107973232474

> <r_i_glide_esite>
0

> <r_i_glide_emodel>
-28.6066203439054

> <r_i_glide_energy>
-35.6235688924789

> <r_i_glide_einternal>
1.87564766407013

> <i_i_glide_confnum>
1

> <i_i_glide_posenum>
192

> <r_i_glide_eff_state_penalty>
0

> <PMID>
8879541

> <r_glide_shape_similarity>
0.774723708629608

> <s_m_subgroup_title>
505 training

> <s_m_subgroupid>
pocket_pv

> <b_m_subgroup_collapsed>
0

$$$$
BindingDB_50380458_mol_1
                    3D
 Schrodinger Suite 2021-2.
 47 49  0  0  1  0            999 V2000
   26.3024    1.6983   52.7357 C   0  0  0  0  0  0
   27.2531    0.9447   53.4307 C   0  0  0  0  0  0
   26.8194   -0.0845   54.2802 C   0  0  0  0  0  0
   24.9312    1.3680   52.8319 C   0  0  0  0  0  0
   26.7928    2.7169   51.9608 O   0  0  0  0  0  0
   25.8568    3.6034   51.3721 C   0  0  0  0  0  0
   28.5706    1.2735   53.2537 O   0  0  0  0  0  0
   29.4840    0.7608   54.2013 C   0  0  0  0  0  0
   24.5089    0.3307   53.6814 C   0  0  0  0  0  0
   25.4571   -0.3593   54.4566 C   0  0  0  0  0  0
   25.0671   -1.2662   55.3668 N   0  0  0  0  0  0
   23.7737   -1.5545   55.4480 C   0  0  0  0  0  0
   22.8150   -1.0253   54.7115 N   0  0  0  0  0  0
   23.1679   -0.0799   53.8259 C   0  0  0  0  0  0
   22.1833    0.5108   53.0393 N   0  0  0  0  0  0
   20.8439    0.1861   52.8307 C   0  0  0  0  0  0
   20.1581   -0.8549   53.4891 C   0  0  0  0  0  0
   18.8263   -1.1108   53.1776 C   0  0  0  0  0  0
   18.1452   -0.3135   52.2517 C   0  0  0  0  0  0
   18.8173    0.7205   51.5789 C   0  0  0  0  0  0
   20.1661    0.9620   51.8707 C   0  0  0  0  0  0
   16.8063   -0.6336   52.0126 N   0  0  0  0  0  0
   15.7944    0.2632   52.2211 C   0  0  0  0  0  0
   14.8784   -0.3612   52.9519 O   0  0  0  0  0  0
   15.7388    1.4230   51.8203 O   0  0  0  0  0  0
   13.7497    0.3321   53.4354 C   0  0  0  0  0  0
   12.6178    0.2675   52.4118 C   0  0  0  0  0  0
   18.0483   -2.4636   53.9085 Cl  0  0  0  0  0  0
   27.5291   -0.6698   54.8439 H   0  0  0  0  0  0
   24.2020    1.9139   52.2561 H   0  0  0  0  0  0
   26.3885    4.4221   50.8868 H   0  0  0  0  0  0
   25.2643    3.0955   50.6108 H   0  0  0  0  0  0
   25.1823    4.0315   52.1116 H   0  0  0  0  0  0
   30.4450    1.2708   54.1487 H   0  0  0  0  0  0
   29.1242    0.9375   55.2161 H   0  0  0  0  0  0
   29.6654   -0.3046   54.0546 H   0  0  0  0  0  0
   23.4804   -2.3096   56.1627 H   0  0  0  0  0  0
   22.5322    1.2298   52.4315 H   0  0  0  0  0  0
   20.6002   -1.5179   54.2112 H   0  0  0  0  0  0
   18.3078    1.3262   50.8430 H   0  0  0  0  0  0
   20.6788    1.7565   51.3462 H   0  0  0  0  0  0
   16.5545   -1.5474   52.3526 H   0  0  0  0  0  0
   13.9928    1.3683   53.6843 H   0  0  0  0  0  0
   13.4375   -0.1458   54.3633 H   0  0  0  0  0  0
   11.7238    0.7680   52.7877 H   0  0  0  0  0  0
   12.3606   -0.7639   52.1798 H   0  0  0  0  0  0
   12.9008    0.7621   51.4823 H   0  0  0  0  0  0
  1  2  2  0  0  0
  1  4  1  0  0  0
  1  5  1  0  0  0
  2  3  1  0  0  0
  2  7  1  0  0  0
  3 10  2  0  0  0
  3 29  1  0  0  0
  4  9  2  0  0  0
  4 30  1  0  0  0
  5  6  1  0  0  0
  6 31  1  0  0  0
  6 32  1  0  0  0
  6 33  1  0  0  0
  7  8  1  0  0  0
  8 34  1  0  0  0
  8 35  1  0  0  0
  8 36  1  0  0  0
  9 10  1  0  0  0
  9 14  1  0  0  0
 10 11  1  0  0  0
 11 12  2  0  0  0
 12 13  1  0  0  0
 12 37  1  0  0  0
 13 14  2  0  0  0
 14 15  1  0  0  0
 15 16  1  0  0  0
 15 38  1  0  0  0
 16 17  2  0  0  0
 16 21  1  0  0  0
 17 18  1  0  0  0
 17 39  1  0  0  0
 18 19  2  0  0  0
 18 28  1  0  0  0
 19 20  1  0  0  0
 19 22  1  0  0  0
 20 21  2  0  0  0
 20 40  1  0  0  0
 21 41  1  0  0  0
 22 23  1  0  0  0
 22 42  1  0  0  0
 23 24  1  0  0  0
 23 25  2  0  0  0
 24 26  1  0  0  0
 26 27  1  0  0  0
 26 43  1  0  0  0
 26 44  1  0  0  0
 27 45  1  0  0  0
 27 46  1  0  0  0
 27 47  1  0  0  0
M  END
> <s_m_entry_id>
455

> <s_m_entry_name>
pocket_pv.266

> <s_m_Source_Path>
/home/bortolaa/Project/GT/mario-master/docking/set505protein_struct_1_site_1_set505ligs_train

> <s_m_Source_File>
pocket_pv.maegz

> <i_m_Source_File_Index>
266

> <From>
www.bindingDB.org

> <BindingDB Reactant_set_id>
50927741

> <Ligand InChI>
InChI=1S/C19H19ClN4O4/c1-4-28-19(25)24-14-6-5-11(7-13(14)20)23-18-12-8-16(26-2)17(27-3)9-15(12)21-10-22-18/h5-10H,4H2,1-3H3,(H,24,25)(H,21,22,23)

> <Ligand InChI Key>
WMWSTVYFFWEFCV-UHFFFAOYSA-N

> <BindingDB MonomerID>
50380458

> <BindingDB Ligand Name>
CHEMBL2018752

> <Target Name Assigned by Curator or DataSource>
Epidermal growth factor receptor

> <Target Source Organism According to Curator or DataSource>
Homo sapiens

> <Ki (nM)>


> <IC50 (nM)>
1000

> <Kd (nM)>


> <EC50 (nM)>


> <kon (M-1-s-1)>


> <koff (s-1)>


> <pH>


> <Temp C>


> <Curation/DataSource>
ChEMBL

> <Article DOI>
10.1021/jm2013453

> <PubChem AID>


> <Patent Number>


> <Authors>
Garofalo, A; Farce, A; Ravez, S; Lemoine, A; Six, P; Chavatte, P; Goossens, L; Depreux, P

> <Institution>
Univ. Lille Nord de France

> <Link to Ligand in BindingDB>
http://www.bindingdb.org/bind/chemsearch/marvin/MolStructure.jsp?monomerid=50380458

> <Link to Ligand-Target Pair in BindingDB>
http://www.bindingdb.org/jsp/dbsearch/PrimarySearch_ki.jsp?energyterm=kJ/mole&tag=r21&monomerid=50380458&enzyme=Epidermal+growth+factor+receptor&column=ki&startPg=0&Increment=50&submit=Search

> <Ligand HET ID in PDB>


> <PDB ID(s) for Ligand-Target Complex>


> <PubChem CID>
56954006

> <PubChem SID>
160859541

> <ChEBI ID of Ligand>


> <ChEMBL ID of Ligand>
CHEMBL2018752

> <DrugBank ID of Ligand>


> <IUPHAR_GRAC ID of Ligand>


> <KEGG ID of Ligand>


> <ZINC ID of Ligand>
ZINC84617834

> <Number of Protein Chains in Target (>
1

> <BindingDB Target Chain Sequence>
MRPSGTAGAALLALLAALCPASRALEEKKVCQGTSNKLTQLGTFEDHFLSLQRMFNNCEVVLGNLEITYVQRNYDLSFLKTIQEVAGYVLIALNTVERIPLENLQIIRGNMYYENSYALAVLSNYDANKTGLKELPMRNLQEILHGAVRFSNNPALCNVESIQWRDIVSSDFLSNMSMDFQNHLGSCQKCDPSCPNGSCWGAGEENCQKLTKIICAQQCSGRCRGKSPSDCCHNQCAAGCTGPRESDCLVCRKFRDEATCKDTCPPLMLYNPTTYQMDVNPEGKYSFGATCVKKCPRNYVVTDHGSCVRACGADSYEMEEDGVRKCKKCEGPCRKVCNGIGIGEFKDSLSINATNIKHFKNCTSISGDLHILPVAFRGDSFTHTPPLDPQELDILKTVKEITGFLLIQAWPENRTDLHAFENLEIIRGRTKQHGQFSLAVVSLNITSLGLRSLKEISDGDVIISGNKNLCYANTINWKKLFGTSGQKTKIISNRGENSCKATGQVCHALCSPEGCWGPEPRDCVSCRNVSRGRECVDKCNLLEGEPREFVENSECIQCHPECLPQAMNITCTGRGPDNCIQCAHYIDGPHCVKTCPAGVMGENNTLVWKYADAGHVCHLCHPNCTYGCTGPGLEGCPTNGPKIPSIATGMVGALLLLLVVALGIGLFMRRRHIVRKRTLRRLLQERELVEPLTPSGEAPNQALLRILKETEFKKIKVLGSGAFGTVYKGLWIPEGEKVKIPVAIKELREATSPKANKEILDEAYVMASVDNPHVCRLLGICLTSTVQLITQLMPFGCLLDYVREHKDNIGSQYLLNWCVQIAKGMNYLEDRRLVHRDLAARNVLVKTPQHVKITDFGLAKLLGAEEKEYHAEGGKVPIKWMALESILHRIYTHQSDVWSYGVTVWELMTFGSKPYDGIPASEISSILEKGERLPQPPICTIDVYMIMVKCWMIDADSRPKFRELIIEFSKMARDPQRYLVIQGDERMHLPSPTDSNFYRALMDEEDMDDVVDADEYLIPQQGFFSSPSTSRTPLLSSLSATSNNSTVACIDRNGLQSCPIKEDSFLQRYSSDPTGALTEDSIDDTFLPVPEYINQSVPKRPAGSVQNPVYHNQPLNPAPSRDPHYQDPHSTAVGNPEYLNTVQPTCVNSTFDSPAHWAQKGSHQISLDNPDYQQDFFPKEAKPNGIFKGSTAENAEYLRVAPQSSEFIGA

> <PDB ID(s) of Target Chain>
1IVO,1M14,1M17,1MOX,1XKK,1Z9I,2GS2,2GS6,2ITW,2ITX,2ITY,2J5E,2J5F,2J6M,2RF9,2RGP,3B2V,3BEL,3GOP,3POZ,3QWQ,3VJO,3W2O,3W2P,3W2Q,3W2R,3W2S,3W32,3W33,4G5J,4I23,4JQ7,4JQ8,4JR3,4JRV,4KRO,4LI5,4RJ4,4RJ5,4RJ6,4RJ7,4RJ8,4TKS,4UIP,4UV7,4WKQ,4WRG,4ZAU,5C8K,5C8M,5C8N,5CAL,5CAN,5CAO,5CAP,5CAQ,5CAS,5CAU,5CAV,5EDP,5EDQ,5EDR,5EM5,5EM6,5EM7,5EM8,5FED,5GNK,5HCX,5HCY,5HCZ,5HIB,5HIC,5UGB,5WB7,5WB8,5Y25,6S89,6S8A

> <UniProt (SwissProt) Recommended Name of Target Chain>
Epidermal growth factor receptor

> <UniProt (SwissProt) Entry Name of Target Chain>
EGFR_HUMAN

> <UniProt (SwissProt) Primary ID of Target Chain>
P00533

> <UniProt (SwissProt) Secondary ID(s) of Target Chain>
O00688,O00732,P06268,Q14225,Q68GS5,Q92795,Q9BZS2,Q9GZX1,Q9H2C9,Q9H3C9,Q9UMD7,Q9UMD8,Q9UMG5

> <UniProt (SwissProt) Alternative ID(s) of Target Chain>


> <UniProt (TrEMBL) Submitted Name of Target Chain>


> <UniProt (TrEMBL) Entry Name of Target Chain>


> <UniProt (TrEMBL) Primary ID of Target Chain>


> <UniProt (TrEMBL) Secondary ID(s) of Target Chain>


> <UniProt (TrEMBL) Alternative ID(s) of Target Chain>


> <training label>
6

> <i_lp_mmshare_version>
54117

> <s_epik_input>
W0NIM11PYyhbY0hdMSljKE9bQ0gzXSlbY0hdYyhjMTIpbltjSF1uYzJbTkhdYzNbY0hdYyhDbCljKFtjSF1bY0hdMylbTkhdQyg9TylPW0NIMl1bQ0gzXQ==

> <s_epik_cmdline>
J2VwaWtfcHl0aG9uJywgJy1waHQnLCAnMC4xJywgJy1waCcsICc3LjQnLCAnLXRuJywgJzgnLCAnLW1hJywgJzIwMCcsICctaW1hZScsICc8aW5maWxlLm1hZT4nLCAnLW9tYWUnLCAnPG91dGZpbGUubWFlPic=

> <r_lp_tautomer_probability>
1

> <r_epik_Ionization_Penalty>
  0.0007

> <r_epik_Ionization_Penalty_Charging>
  0.0000

> <r_epik_Ionization_Penalty_Neutral>
  0.0007

> <r_epik_State_Penalty>
  0.0000

> <r_epik_Charging_Adjusted_Penalty>
0

> <i_epik_Tot_Q>
0

> <i_epik_Tot_abs_Q>
0

> <i_f3d_flags>
0

> <s_lp_Force_Field>
OPLS_2005

> <r_lp_Energy>
26.331869

> <b_lp_Chiralities_Consistent>
1

> <s_lp_Variant>
BindingDB_50380458_mol_1-1

> <s_i_glide_gridfile>
struct_1_site_1

> <i_i_glide_lignum>
68

> <i_i_glide_rotatable_bonds>
8

> <r_i_docking_score>
-5.79043931857647

> <r_i_glide_ligand_efficiency>
-0.206801404234874

> <r_i_glide_ligand_efficiency_sa>
-0.62797086277051

> <r_i_glide_ligand_efficiency_ln>
-1.33660340941344

> <r_i_glide_gscore>
-5.79043931857647

> <r_i_glide_lipo>
-2.67368021725406

> <r_i_glide_hbond>
-0.0464946887761315

> <r_i_glide_metal>
0

> <r_i_glide_rewards>
-1.24840309914947

> <r_i_glide_evdw>
-42.5206108093262

> <r_i_glide_ecoul>
-2.00400900840759

> <r_i_glide_erotb>
0.604770578330646

> <r_i_glide_esite>
0

> <r_i_glide_emodel>
-31.552144704686

> <r_i_glide_energy>
-44.5246198177338

> <r_i_glide_einternal>
2.99423289299011

> <i_i_glide_confnum>
9

> <i_i_glide_posenum>
277

> <r_i_glide_eff_state_penalty>
0

> <PMID>
22229669

> <s_epik_Chemistry_Notes>
This compound has an ester and may undergo hydrolysis at high or low pH.

> <r_glide_shape_similarity>
0.726639330387115

> <s_m_subgroup_title>
505 training

> <s_m_subgroupid>
pocket_pv

> <b_m_subgroup_collapsed>
0

$$$$
BindingDB_50340925_mol_1
                    3D
 Schrodinger Suite 2021-2.
 47 49  0  0  1  0            999 V2000
   26.2605    1.6741   52.7433 C   0  0  0  0  0  0
   27.2320    0.9615   53.4525 C   0  0  0  0  0  0
   26.8296   -0.0568   54.3283 C   0  0  0  0  0  0
   24.8966    1.3172   52.8541 C   0  0  0  0  0  0
   24.5031    0.2857   53.7230 C   0  0  0  0  0  0
   25.4722   -0.3656   54.5072 C   0  0  0  0  0  0
   25.1034   -1.2668   55.4299 N   0  0  0  0  0  0
   23.8239   -1.6048   55.5061 C   0  0  0  0  0  0
   22.8530   -1.1189   54.7622 N   0  0  0  0  0  0
   23.1731   -0.1562   53.8825 C   0  0  0  0  0  0
   26.7265    2.7006   51.9606 O   0  0  0  0  0  0
   25.7757    3.6008   51.4148 C   0  0  0  0  0  0
   28.5375    1.3343   53.2741 O   0  0  0  0  0  0
   29.4645    0.9119   54.2547 C   0  0  0  0  0  0
   22.1626    0.4116   53.1162 N   0  0  0  0  0  0
   20.8237    0.0643   52.9671 C   0  0  0  0  0  0
   20.1462    0.7191   51.9269 C   0  0  0  0  0  0
   18.7935    0.4616   51.6804 C   0  0  0  0  0  0
   18.1177   -0.4729   52.4814 C   0  0  0  0  0  0
   18.7916   -1.1457   53.5031 C   0  0  0  0  0  0
   20.1297   -0.8675   53.7692 C   0  0  0  0  0  0
   16.7733   -0.8058   52.2946 N   0  0  0  0  0  0
   15.7553    0.0925   52.1320 C   0  0  0  0  0  0
   14.6247   -0.5499   52.3973 O   0  0  0  0  0  0
   15.8530    1.2723   51.8163 O   0  0  0  0  0  0
   13.4024    0.1486   52.4620 C   0  0  0  0  0  0
   13.1840    0.6392   53.8883 C   0  0  0  0  0  0
   27.5540   -0.5986   54.9121 H   0  0  0  0  0  0
   24.1533    1.8362   52.2726 H   0  0  0  0  0  0
   23.5550   -2.3618   56.2264 H   0  0  0  0  0  0
   26.2907    4.4435   50.9551 H   0  0  0  0  0  0
   25.1801    3.1209   50.6381 H   0  0  0  0  0  0
   25.1117    4.0062   52.1820 H   0  0  0  0  0  0
   30.3940    1.4770   54.1733 H   0  0  0  0  0  0
   29.0854    1.1141   55.2577 H   0  0  0  0  0  0
   29.7001   -0.1497   54.1593 H   0  0  0  0  0  0
   22.4850    1.1224   52.4835 H   0  0  0  0  0  0
   20.6581    1.4349   51.3002 H   0  0  0  0  0  0
   18.2902    0.9708   50.8708 H   0  0  0  0  0  0
   18.2731   -1.8597   54.1237 H   0  0  0  0  0  0
   20.5530   -1.3941   54.6036 H   0  0  0  0  0  0
   16.4622   -1.7006   52.6333 H   0  0  0  0  0  0
   12.6036   -0.5371   52.1781 H   0  0  0  0  0  0
   13.3617    0.9732   51.7489 H   0  0  0  0  0  0
   12.2177    1.1344   53.9858 H   0  0  0  0  0  0
   13.9560    1.3510   54.1785 H   0  0  0  0  0  0
   13.2067   -0.1934   54.5878 H   0  0  0  0  0  0
  1  2  2  0  0  0
  1  4  1  0  0  0
  1 11  1  0  0  0
  2  3  1  0  0  0
  2 13  1  0  0  0
  3  6  2  0  0  0
  3 28  1  0  0  0
  4  5  2  0  0  0
  4 29  1  0  0  0
  5  6  1  0  0  0
  5 10  1  0  0  0
  6  7  1  0  0  0
  7  8  2  0  0  0
  8  9  1  0  0  0
  8 30  1  0  0  0
  9 10  2  0  0  0
 10 15  1  0  0  0
 11 12  1  0  0  0
 12 31  1  0  0  0
 12 32  1  0  0  0
 12 33  1  0  0  0
 13 14  1  0  0  0
 14 34  1  0  0  0
 14 35  1  0  0  0
 14 36  1  0  0  0
 15 16  1  0  0  0
 15 37  1  0  0  0
 16 17  2  0  0  0
 16 21  1  0  0  0
 17 18  1  0  0  0
 17 38  1  0  0  0
 18 19  2  0  0  0
 18 39  1  0  0  0
 19 20  1  0  0  0
 19 22  1  0  0  0
 20 21  2  0  0  0
 20 40  1  0  0  0
 21 41  1  0  0  0
 22 23  1  0  0  0
 22 42  1  0  0  0
 23 24  1  0  0  0
 23 25  2  0  0  0
 24 26  1  0  0  0
 26 27  1  0  0  0
 26 43  1  0  0  0
 26 44  1  0  0  0
 27 45  1  0  0  0
 27 46  1  0  0  0
 27 47  1  0  0  0
M  END
> <s_m_entry_id>
456

> <s_m_entry_name>
pocket_pv.267

> <s_m_Source_Path>
/home/bortolaa/Project/GT/mario-master/docking/set505protein_struct_1_site_1_set505ligs_train

> <s_m_Source_File>
pocket_pv.maegz

> <i_m_Source_File_Index>
267

> <From>
www.bindingDB.org

> <BindingDB Reactant_set_id>
406582

> <Ligand InChI>
InChI=1S/C19H20N4O4/c1-4-27-19(24)23-13-7-5-12(6-8-13)22-18-14-9-16(25-2)17(26-3)10-15(14)20-11-21-18/h5-11H,4H2,1-3H3,(H,23,24)(H,20,21,22)

> <Ligand InChI Key>
JVWYBRODEHTVBN-UHFFFAOYSA-N

> <BindingDB MonomerID>
50340925

> <BindingDB Ligand Name>
CHEMBL1761931::Ethyl {4-[6,7-dimethoxy-quinazolin-4-ylamino]phenyl}carbamate (11c)::ethyl 4-(6,7-dimethoxyquinazolin-4-ylamino)phenylcarbamate

> <Target Name Assigned by Curator or DataSource>
Epidermal growth factor receptor

> <Target Source Organism According to Curator or DataSource>
Homo sapiens

> <Ki (nM)>


> <IC50 (nM)>
47900

> <Kd (nM)>


> <EC50 (nM)>


> <kon (M-1-s-1)>


> <koff (s-1)>


> <Temp C>


> <Curation/DataSource>
Curated from the literature by BindingDB

> <Article DOI>
10.3109/14756360903169485

> <PubChem AID>


> <Patent Number>


> <Authors>
Garofalo, A; Goossens, L; Lemoine, A; Farce, A; Arlot, Y; Depreux, P

> <Institution>
Université Lille Nord de France

> <Link to Ligand in BindingDB>
http://www.bindingdb.org/bind/chemsearch/marvin/MolStructure.jsp?monomerid=50340925

> <Link to Ligand-Target Pair in BindingDB>
http://www.bindingdb.org/jsp/dbsearch/PrimarySearch_ki.jsp?energyterm=kJ/mole&tag=r21&monomerid=50340925&enzyme=Epidermal+growth+factor+receptor&column=ki&startPg=0&Increment=50&submit=Search

> <Ligand HET ID in PDB>


> <PDB ID(s) for Ligand-Target Complex>


> <PubChem CID>
54587267

> <PubChem SID>
131343861

> <ChEBI ID of Ligand>


> <ChEMBL ID of Ligand>
CHEMBL1761931

> <DrugBank ID of Ligand>


> <IUPHAR_GRAC ID of Ligand>


> <KEGG ID of Ligand>


> <ZINC ID of Ligand>
ZINC71296477

> <Number of Protein Chains in Target (>
1

> <BindingDB Target Chain Sequence>
MRPSGTAGAALLALLAALCPASRALEEKKVCQGTSNKLTQLGTFEDHFLSLQRMFNNCEVVLGNLEITYVQRNYDLSFLKTIQEVAGYVLIALNTVERIPLENLQIIRGNMYYENSYALAVLSNYDANKTGLKELPMRNLQEILHGAVRFSNNPALCNVESIQWRDIVSSDFLSNMSMDFQNHLGSCQKCDPSCPNGSCWGAGEENCQKLTKIICAQQCSGRCRGKSPSDCCHNQCAAGCTGPRESDCLVCRKFRDEATCKDTCPPLMLYNPTTYQMDVNPEGKYSFGATCVKKCPRNYVVTDHGSCVRACGADSYEMEEDGVRKCKKCEGPCRKVCNGIGIGEFKDSLSINATNIKHFKNCTSISGDLHILPVAFRGDSFTHTPPLDPQELDILKTVKEITGFLLIQAWPENRTDLHAFENLEIIRGRTKQHGQFSLAVVSLNITSLGLRSLKEISDGDVIISGNKNLCYANTINWKKLFGTSGQKTKIISNRGENSCKATGQVCHALCSPEGCWGPEPRDCVSCRNVSRGRECVDKCNLLEGEPREFVENSECIQCHPECLPQAMNITCTGRGPDNCIQCAHYIDGPHCVKTCPAGVMGENNTLVWKYADAGHVCHLCHPNCTYGCTGPGLEGCPTNGPKIPSIATGMVGALLLLLVVALGIGLFMRRRHIVRKRTLRRLLQERELVEPLTPSGEAPNQALLRILKETEFKKIKVLGSGAFGTVYKGLWIPEGEKVKIPVAIKELREATSPKANKEILDEAYVMASVDNPHVCRLLGICLTSTVQLITQLMPFGCLLDYVREHKDNIGSQYLLNWCVQIAKGMNYLEDRRLVHRDLAARNVLVKTPQHVKITDFGLAKLLGAEEKEYHAEGGKVPIKWMALESILHRIYTHQSDVWSYGVTVWELMTFGSKPYDGIPASEISSILEKGERLPQPPICTIDVYMIMVKCWMIDADSRPKFRELIIEFSKMARDPQRYLVIQGDERMHLPSPTDSNFYRALMDEEDMDDVVDADEYLIPQQGFFSSPSTSRTPLLSSLSATSNNSTVACIDRNGLQSCPIKEDSFLQRYSSDPTGALTEDSIDDTFLPVPEYINQSVPKRPAGSVQNPVYHNQPLNPAPSRDPHYQDPHSTAVGNPEYLNTVQPTCVNSTFDSPAHWAQKGSHQISLDNPDYQQDFFPKEAKPNGIFKGSTAENAEYLRVAPQSSEFIGA

> <PDB ID(s) of Target Chain>
1IVO,1M14,1M17,1MOX,1XKK,1Z9I,2GS2,2GS6,2ITW,2ITX,2ITY,2J5E,2J5F,2J6M,2RF9,2RGP,3B2V,3BEL,3GOP,3POZ,3QWQ,3VJO,3W2O,3W2P,3W2Q,3W2R,3W2S,3W32,3W33,4G5J,4I23,4JQ7,4JQ8,4JR3,4JRV,4KRO,4LI5,4RJ4,4RJ5,4RJ6,4RJ7,4RJ8,4TKS,4UIP,4UV7,4WKQ,4WRG,4ZAU,5C8K,5C8M,5C8N,5CAL,5CAN,5CAO,5CAP,5CAQ,5CAS,5CAU,5CAV,5EDP,5EDQ,5EDR,5EM5,5EM6,5EM7,5EM8,5FED,5GNK,5HCX,5HCY,5HCZ,5HIB,5HIC,5UGB,5WB7,5WB8,5Y25,6S89,6S8A

> <UniProt (SwissProt) Recommended Name of Target Chain>
Epidermal growth factor receptor

> <UniProt (SwissProt) Entry Name of Target Chain>
EGFR_HUMAN

> <UniProt (SwissProt) Primary ID of Target Chain>
P00533

> <UniProt (SwissProt) Secondary ID(s) of Target Chain>
O00688,O00732,P06268,Q14225,Q68GS5,Q92795,Q9BZS2,Q9GZX1,Q9H2C9,Q9H3C9,Q9UMD7,Q9UMD8,Q9UMG5

> <UniProt (SwissProt) Alternative ID(s) of Target Chain>


> <UniProt (TrEMBL) Submitted Name of Target Chain>


> <UniProt (TrEMBL) Entry Name of Target Chain>


> <UniProt (TrEMBL) Primary ID of Target Chain>


> <UniProt (TrEMBL) Secondary ID(s) of Target Chain>


> <UniProt (TrEMBL) Alternative ID(s) of Target Chain>


> <training label>
4.31966

> <i_lp_mmshare_version>
54117

> <s_epik_input>
W0NIM11PYyhbY0hdMSljKE9bQ0gzXSlbY0hdYyhjMTIpbltjSF1uYzJbTkhdYzNbY0hdW2NIXWMoW2NIXVtjSF0zKVtOSF1DKD1PKU9bQ0gyXVtDSDNd

> <s_epik_cmdline>
J2VwaWtfcHl0aG9uJywgJy1waHQnLCAnMC4xJywgJy1waCcsICc3LjQnLCAnLXRuJywgJzgnLCAnLW1hJywgJzIwMCcsICctaW1hZScsICc8aW5maWxlLm1hZT4nLCAnLW9tYWUnLCAnPG91dGZpbGUubWFlPic=

> <r_lp_tautomer_probability>
1

> <r_epik_Ionization_Penalty>
  0.0006

> <r_epik_Ionization_Penalty_Charging>
  0.0000

> <r_epik_Ionization_Penalty_Neutral>
  0.0006

> <r_epik_State_Penalty>
  0.0000

> <r_epik_Charging_Adjusted_Penalty>
0

> <i_epik_Tot_Q>
0

> <i_epik_Tot_abs_Q>
0

> <i_f3d_flags>
0

> <s_lp_Force_Field>
OPLS_2005

> <r_lp_Energy>
26.455679

> <b_lp_Chiralities_Consistent>
1

> <s_lp_Variant>
BindingDB_50340925_mol_1-1

> <s_i_glide_gridfile>
struct_1_site_1

> <i_i_glide_lignum>
4

> <i_i_glide_rotatable_bonds>
8

> <r_i_docking_score>
-5.7764545999772

> <r_i_glide_ligand_efficiency>
-0.213942762962119

> <r_i_glide_ligand_efficiency_sa>
-0.641828288181235

> <r_i_glide_ligand_efficiency_ln>
-1.3446633985778

> <r_i_glide_gscore>
-5.7764545999772

> <r_i_glide_lipo>
-2.47041226533487

> <r_i_glide_hbond>
-0.065065377809342

> <r_i_glide_metal>
0

> <r_i_glide_rewards>
-1.4647243616859

> <r_i_glide_evdw>
-40.9717445373535

> <r_i_glide_ecoul>
-2.91743850708008

> <r_i_glide_erotb>
0.709950407782599

> <r_i_glide_esite>
0

> <r_i_glide_emodel>
-30.2383822159748

> <r_i_glide_energy>
-43.8891830444336

> <r_i_glide_einternal>
3.70706629753113

> <i_i_glide_confnum>
5

> <i_i_glide_posenum>
81

> <r_i_glide_eff_state_penalty>
0

> <PMID>
20222760

> <s_epik_Chemistry_Notes>
This compound has an ester and may undergo hydrolysis at high or low pH.

> <r_glide_shape_similarity>
0.715450823307037

> <pH>
7.5

> <s_m_subgroup_title>
505 training

> <s_m_subgroupid>
pocket_pv

> <b_m_subgroup_collapsed>
0

$$$$
ZM447439
                    3D
 Schrodinger Suite 2021-2.
 69 73  0  0  1  0            999 V2000
   13.5727    4.6647   52.6156 C   0  0  0  0  0  0
   14.1542    4.5925   54.0454 C   0  0  0  0  0  0
   12.4074    3.1142   54.6985 C   0  0  0  0  0  0
   11.8045    3.2085   53.2860 C   0  0  0  0  0  0
   12.8166    3.4618   52.2519 N   0  0  0  0  0  0
   13.0956    4.3337   54.9749 O   0  0  0  0  0  0
   12.2243    3.6095   50.9142 C   0  0  0  0  0  0
   11.4918    2.3643   50.3513 C   0  0  0  0  0  0
   12.4147    1.1845   49.9842 C   0  0  0  0  0  0
   13.0665    0.6713   51.1505 O   0  0  0  0  0  0
   14.4499    0.6626   51.2684 C   0  0  0  0  0  0
   16.3801   -0.0883   52.5891 C   0  0  0  0  0  0
   14.9855    0.0371   52.4217 C   0  0  0  0  0  0
   15.3516    1.2362   50.3302 C   0  0  0  0  0  0
   13.5238   -1.6734   53.0721 C   0  0  0  0  0  0
   14.1598   -0.4483   53.3986 O   0  0  0  0  0  0
   17.2639    0.4378   51.6212 C   0  0  0  0  0  0
   16.7499    1.1412   50.4910 C   0  0  0  0  0  0
   18.6746    0.3469   51.7178 C   0  0  0  0  0  0
   18.8909    1.5502   49.7529 C   0  0  0  0  0  0
   19.4675    0.8810   50.7504 N   0  0  0  0  0  0
   17.5819    1.7092   49.5810 N   0  0  0  0  0  0
   19.2874   -0.2721   52.8263 N   0  0  0  0  0  0
   20.6114   -0.0903   53.2372 C   0  0  0  0  0  0
   22.6645    1.2110   53.0746 C   0  0  0  0  0  0
   21.2839    1.1099   52.9246 C   0  0  0  0  0  0
   21.3026   -1.1208   53.9157 C   0  0  0  0  0  0
   22.6925   -1.0046   54.1148 C   0  0  0  0  0  0
   23.3794    0.1459   53.6337 C   0  0  0  0  0  0
   24.7762    0.3154   53.5779 N   0  0  0  0  0  0
   25.7117   -0.4076   54.1884 C   0  0  0  0  0  0
   25.4874   -1.2656   55.0399 O   0  0  0  0  0  0
   27.1086   -0.0814   53.7715 C   0  0  0  0  0  0
   29.4016   -0.8472   53.4109 C   0  0  0  0  0  0
   28.0409   -1.1326   53.5998 C   0  0  0  0  0  0
   27.5216    1.2699   53.6532 C   0  0  0  0  0  0
   28.8846    1.5529   53.4641 C   0  0  0  0  0  0
   29.8208    0.4980   53.3828 C   0  0  0  0  0  0
   12.9192    5.5338   52.5612 H   0  0  0  0  0  0
   14.3827    4.8245   51.9033 H   0  0  0  0  0  0
   14.9109    3.8086   54.1131 H   0  0  0  0  0  0
   14.6499    5.5285   54.2993 H   0  0  0  0  0  0
   13.0887    2.2649   54.7705 H   0  0  0  0  0  0
   11.6216    2.9649   55.4434 H   0  0  0  0  0  0
   11.2558    2.2917   53.0794 H   0  0  0  0  0  0
   11.0886    4.0229   53.2852 H   0  0  0  0  0  0
   11.5152    4.4415   50.9314 H   0  0  0  0  0  0
   13.0053    3.9006   50.2082 H   0  0  0  0  0  0
   10.7046    2.0339   51.0269 H   0  0  0  0  0  0
   10.9692    2.6761   49.4466 H   0  0  0  0  0  0
   11.7968    0.3753   49.5937 H   0  0  0  0  0  0
   13.0638    1.4604   49.1563 H   0  0  0  0  0  0
   16.7468   -0.5758   53.4798 H   0  0  0  0  0  0
   15.0190    1.7781   49.4624 H   0  0  0  0  0  0
   13.1276   -2.1274   53.9781 H   0  0  0  0  0  0
   12.6931   -1.5340   52.3815 H   0  0  0  0  0  0
   14.2258   -2.3811   52.6302 H   0  0  0  0  0  0
   19.5439    1.9801   49.0059 H   0  0  0  0  0  0
   18.7227   -0.9148   53.3653 H   0  0  0  0  0  0
   23.1687    2.1085   52.7428 H   0  0  0  0  0  0
   20.7728    1.9631   52.5035 H   0  0  0  0  0  0
   20.7917   -2.0315   54.1944 H   0  0  0  0  0  0
   23.2104   -1.8428   54.5566 H   0  0  0  0  0  0
   25.1076    1.0599   52.9801 H   0  0  0  0  0  0
   30.1237   -1.6470   53.3305 H   0  0  0  0  0  0
   27.7238   -2.1643   53.6898 H   0  0  0  0  0  0
   26.8249    2.0888   53.7823 H   0  0  0  0  0  0
   29.2236    2.5801   53.4172 H   0  0  0  0  0  0
   30.8699    0.7283   53.2746 H   0  0  0  0  0  0
  1  2  1  0  0  0
  1  5  1  0  0  0
  1 39  1  0  0  0
  1 40  1  0  0  0
  2  6  1  0  0  0
  2 41  1  0  0  0
  2 42  1  0  0  0
  3  4  1  0  0  0
  3  6  1  0  0  0
  3 43  1  0  0  0
  3 44  1  0  0  0
  4  5  1  0  0  0
  4 45  1  0  0  0
  4 46  1  0  0  0
  5  7  1  0  0  0
  7  8  1  0  0  0
  7 47  1  0  0  0
  7 48  1  0  0  0
  8  9  1  0  0  0
  8 49  1  0  0  0
  8 50  1  0  0  0
  9 10  1  0  0  0
  9 51  1  0  0  0
  9 52  1  0  0  0
 10 11  1  0  0  0
 11 13  2  0  0  0
 11 14  1  0  0  0
 12 13  1  0  0  0
 12 17  2  0  0  0
 12 53  1  0  0  0
 13 16  1  0  0  0
 14 18  2  0  0  0
 14 54  1  0  0  0
 15 16  1  0  0  0
 15 55  1  0  0  0
 15 56  1  0  0  0
 15 57  1  0  0  0
 17 18  1  0  0  0
 17 19  1  0  0  0
 18 22  1  0  0  0
 19 21  2  0  0  0
 19 23  1  0  0  0
 20 21  1  0  0  0
 20 22  2  0  0  0
 20 58  1  0  0  0
 23 24  1  0  0  0
 23 59  1  0  0  0
 24 26  2  0  0  0
 24 27  1  0  0  0
 25 26  1  0  0  0
 25 29  2  0  0  0
 25 60  1  0  0  0
 26 61  1  0  0  0
 27 28  2  0  0  0
 27 62  1  0  0  0
 28 29  1  0  0  0
 28 63  1  0  0  0
 29 30  1  0  0  0
 30 31  1  0  0  0
 30 64  1  0  0  0
 31 32  2  0  0  0
 31 33  1  0  0  0
 33 35  2  0  0  0
 33 36  1  0  0  0
 34 35  1  0  0  0
 34 38  2  0  0  0
 34 65  1  0  0  0
 35 66  1  0  0  0
 36 37  2  0  0  0
 36 67  1  0  0  0
 37 38  1  0  0  0
 37 68  1  0  0  0
 38 69  1  0  0  0
M  END
> <s_m_entry_id>
457

> <s_m_entry_name>
pocket_pv.268

> <s_m_Source_Path>
/home/bortolaa/Project/GT/mario-master/docking/set505protein_struct_1_site_1_set505ligs_train

> <s_m_Source_File>
pocket_pv.maegz

> <i_m_Source_File_Index>
268

> <From>
www.bindingDB.org

> <BindingDB Reactant_set_id>
50740923

> <Ligand InChI>
InChI=1S/C29H31N5O4/c1-36-26-18-24-25(19-27(26)38-15-5-12-34-13-16-37-17-14-34)30-20-31-28(24)32-22-8-10-23(11-9-22)33-29(35)21-6-3-2-4-7-21/h2-4,6-11,18-20H,5,12-17H2,1H3,(H,33,35)(H,30,31,32)

> <Ligand InChI Key>
OGNYUTNQZVRGMN-UHFFFAOYSA-N

> <BindingDB MonomerID>
14210

> <BindingDB Ligand Name>
4-(4-(N-benzoylamino)anilino)-6-methoxy-7-(3-(1-morpholino)propoxy)-quinazoline::CHEMBL202721::N-[4-({6-methoxy-7-[3-(morpholin-4-yl)propoxy]quinazolin-4-yl}amino)phenyl]benzamide::ZM447439

> <Target Name Assigned by Curator or DataSource>
Epidermal growth factor receptor

> <Target Source Organism According to Curator or DataSource>
Homo sapiens

> <Ki (nM)>


> <Kd (nM)>


> <EC50 (nM)>


> <kon (M-1-s-1)>


> <koff (s-1)>


> <pH>


> <Temp C>


> <Curation/DataSource>
ChEMBL

> <Article DOI>
10.1016/j.ejmech.2017.02.061

> <PubChem AID>


> <Patent Number>


> <Authors>
Zheng, YG; Su, J; Gao, CY; Jiang, P; An, L; Xue, YS; Gao, J; Liu, Y

> <Institution>
Xuzhou Medical University

> <Link to Ligand in BindingDB>
http://www.bindingdb.org/bind/chemsearch/marvin/MolStructure.jsp?monomerid=14210

> <Link to Ligand-Target Pair in BindingDB>
http://www.bindingdb.org/jsp/dbsearch/PrimarySearch_ki.jsp?energyterm=kJ/mole&tag=r21&monomerid=14210&enzyme=Epidermal+growth+factor+receptor&column=ki&startPg=0&Increment=50&submit=Search

> <PDB ID(s) for Ligand-Target Complex>
2VRX

> <PubChem CID>
9914412

> <PubChem SID>
46514557

> <ChEBI ID of Ligand>


> <ChEMBL ID of Ligand>
CHEMBL202721

> <DrugBank ID of Ligand>


> <IUPHAR_GRAC ID of Ligand>


> <KEGG ID of Ligand>


> <ZINC ID of Ligand>
ZINC22067501

> <Number of Protein Chains in Target (>
1

> <BindingDB Target Chain Sequence>
MRPSGTAGAALLALLAALCPASRALEEKKVCQGTSNKLTQLGTFEDHFLSLQRMFNNCEVVLGNLEITYVQRNYDLSFLKTIQEVAGYVLIALNTVERIPLENLQIIRGNMYYENSYALAVLSNYDANKTGLKELPMRNLQEILHGAVRFSNNPALCNVESIQWRDIVSSDFLSNMSMDFQNHLGSCQKCDPSCPNGSCWGAGEENCQKLTKIICAQQCSGRCRGKSPSDCCHNQCAAGCTGPRESDCLVCRKFRDEATCKDTCPPLMLYNPTTYQMDVNPEGKYSFGATCVKKCPRNYVVTDHGSCVRACGADSYEMEEDGVRKCKKCEGPCRKVCNGIGIGEFKDSLSINATNIKHFKNCTSISGDLHILPVAFRGDSFTHTPPLDPQELDILKTVKEITGFLLIQAWPENRTDLHAFENLEIIRGRTKQHGQFSLAVVSLNITSLGLRSLKEISDGDVIISGNKNLCYANTINWKKLFGTSGQKTKIISNRGENSCKATGQVCHALCSPEGCWGPEPRDCVSCRNVSRGRECVDKCNLLEGEPREFVENSECIQCHPECLPQAMNITCTGRGPDNCIQCAHYIDGPHCVKTCPAGVMGENNTLVWKYADAGHVCHLCHPNCTYGCTGPGLEGCPTNGPKIPSIATGMVGALLLLLVVALGIGLFMRRRHIVRKRTLRRLLQERELVEPLTPSGEAPNQALLRILKETEFKKIKVLGSGAFGTVYKGLWIPEGEKVKIPVAIKELREATSPKANKEILDEAYVMASVDNPHVCRLLGICLTSTVQLITQLMPFGCLLDYVREHKDNIGSQYLLNWCVQIAKGMNYLEDRRLVHRDLAARNVLVKTPQHVKITDFGLAKLLGAEEKEYHAEGGKVPIKWMALESILHRIYTHQSDVWSYGVTVWELMTFGSKPYDGIPASEISSILEKGERLPQPPICTIDVYMIMVKCWMIDADSRPKFRELIIEFSKMARDPQRYLVIQGDERMHLPSPTDSNFYRALMDEEDMDDVVDADEYLIPQQGFFSSPSTSRTPLLSSLSATSNNSTVACIDRNGLQSCPIKEDSFLQRYSSDPTGALTEDSIDDTFLPVPEYINQSVPKRPAGSVQNPVYHNQPLNPAPSRDPHYQDPHSTAVGNPEYLNTVQPTCVNSTFDSPAHWAQKGSHQISLDNPDYQQDFFPKEAKPNGIFKGSTAENAEYLRVAPQSSEFIGA

> <PDB ID(s) of Target Chain>
1IVO,1M14,1M17,1MOX,1XKK,1Z9I,2GS2,2GS6,2ITW,2ITX,2ITY,2J5E,2J5F,2J6M,2RF9,2RGP,3B2V,3BEL,3GOP,3POZ,3QWQ,3VJO,3W2O,3W2P,3W2Q,3W2R,3W2S,3W32,3W33,4G5J,4I23,4JQ7,4JQ8,4JR3,4JRV,4KRO,4LI5,4RJ4,4RJ5,4RJ6,4RJ7,4RJ8,4TKS,4UIP,4UV7,4WKQ,4WRG,4ZAU,5C8K,5C8M,5C8N,5CAL,5CAN,5CAO,5CAP,5CAQ,5CAS,5CAU,5CAV,5EDP,5EDQ,5EDR,5EM5,5EM6,5EM7,5EM8,5FED,5GNK,5HCX,5HCY,5HCZ,5HIB,5HIC,5UGB,5WB7,5WB8,5Y25,6S89,6S8A

> <UniProt (SwissProt) Recommended Name of Target Chain>
Epidermal growth factor receptor

> <UniProt (SwissProt) Entry Name of Target Chain>
EGFR_HUMAN

> <UniProt (SwissProt) Primary ID of Target Chain>
P00533

> <UniProt (SwissProt) Secondary ID(s) of Target Chain>
O00688,O00732,P06268,Q14225,Q68GS5,Q92795,Q9BZS2,Q9GZX1,Q9H2C9,Q9H3C9,Q9UMD7,Q9UMD8,Q9UMG5

> <UniProt (SwissProt) Alternative ID(s) of Target Chain>


> <UniProt (TrEMBL) Submitted Name of Target Chain>


> <UniProt (TrEMBL) Entry Name of Target Chain>


> <UniProt (TrEMBL) Primary ID of Target Chain>


> <UniProt (TrEMBL) Secondary ID(s) of Target Chain>


> <UniProt (TrEMBL) Alternative ID(s) of Target Chain>


> <training label>
6.95861

> <i_lp_mmshare_version>
54117

> <s_epik_input>
W0NIMl0xW0NIMl1PW0NIMl1bQ0gyXU4xW0NIMl1bQ0gyXVtDSDJdT2MoYyhbY0hdMilPW0NIM10pW2NIXWMoYzIzKW5bY0hdbmMzW05IXWM0W2NIXVtjSF1jKFtjSF1bY0hdNClbTkhdQyg9TyljNVtjSF1bY0hdW2NIXVtjSF1bY0hdNQ==

> <s_epik_cmdline>
J2VwaWtfcHl0aG9uJywgJy1waHQnLCAnMC4xJywgJy1waCcsICc3LjQnLCAnLXRuJywgJzgnLCAnLW1hJywgJzIwMCcsICctaW1hZScsICc8aW5maWxlLm1hZT4nLCAnLW9tYWUnLCAnPG91dGZpbGUubWFlPic=

> <r_lp_tautomer_probability>
0.999978000241998

> <r_epik_Ionization_Penalty>
  0.1970

> <r_epik_Ionization_Penalty_Charging>
  0.0000

> <r_epik_Ionization_Penalty_Neutral>
  0.1970

> <r_epik_State_Penalty>
  0.1860

> <r_epik_Charging_Adjusted_Penalty>
0.186024314191534

> <i_epik_Tot_Q>
0

> <i_epik_Tot_abs_Q>
0

> <i_f3d_flags>
0

> <s_lp_Force_Field>
OPLS_2005

> <r_lp_Energy>
57.431317

> <b_lp_Chiralities_Consistent>
1

> <s_lp_Variant>
ZM447439-1

> <s_i_glide_gridfile>
struct_1_site_1

> <i_i_glide_lignum>
150

> <i_i_glide_rotatable_bonds>
11

> <r_i_docking_score>
-5.76461348033749

> <r_i_glide_ligand_efficiency>
-0.151700354745724

> <r_i_glide_ligand_efficiency_sa>
-0.510012861239396

> <r_i_glide_ligand_efficiency_ln>
-1.24302024410854

> <r_i_glide_gscore>
-5.95061348033749

> <r_i_glide_lipo>
-3.37600173106208

> <r_i_glide_hbond>
-0.145992626380011

> <r_i_glide_metal>
0

> <r_i_glide_rewards>
-0.330169448863503

> <r_i_glide_evdw>
-48.8353385925293

> <r_i_glide_ecoul>
-2.37594628334045

> <r_i_glide_erotb>
0.699709198095638

> <r_i_glide_esite>
0

> <r_i_glide_emodel>
-21.1165901609279

> <r_i_glide_energy>
-51.2112848758698

> <r_i_glide_einternal>
10.5336465835571

> <i_i_glide_confnum>
189

> <i_i_glide_posenum>
22

> <r_i_glide_eff_state_penalty>
0.186

> <IC50 (nM)>
110

> <PMID>
28279846

> <r_glide_shape_similarity>
0.558234572410583

> <Ligand HET ID in PDB>
447

> <s_m_subgroup_title>
505 training

> <s_m_subgroupid>
pocket_pv

> <b_m_subgroup_collapsed>
0

$$$$
BindingDB_50380454_mol_1
                    3D
 Schrodinger Suite 2021-2.
 50 52  0  0  1  0            999 V2000
   26.2812    1.6959   52.7333 C   0  0  0  0  0  0
   27.2512    0.9763   53.4385 C   0  0  0  0  0  0
   26.8485   -0.0561   54.2975 C   0  0  0  0  0  0
   24.9184    1.3387   52.8416 C   0  0  0  0  0  0
   26.7465    2.7271   51.9565 O   0  0  0  0  0  0
   25.7969    3.6097   51.3834 C   0  0  0  0  0  0
   28.5573    1.3477   53.2643 O   0  0  0  0  0  0
   29.4837    0.9145   54.2422 C   0  0  0  0  0  0
   24.5243    0.3006   53.7044 C   0  0  0  0  0  0
   25.4918   -0.3622   54.4789 C   0  0  0  0  0  0
   25.1236   -1.2675   55.3978 N   0  0  0  0  0  0
   23.8410   -1.5916   55.4850 C   0  0  0  0  0  0
   22.8683   -1.0886   54.7551 N   0  0  0  0  0  0
   23.1933   -0.1303   53.8737 C   0  0  0  0  0  0
   22.1817    0.4499   53.1188 N   0  0  0  0  0  0
   20.8462    0.0942   52.9524 C   0  0  0  0  0  0
   20.1787    0.7428   51.9039 C   0  0  0  0  0  0
   18.8354    0.4672   51.6345 C   0  0  0  0  0  0
   18.1578   -0.4726   52.4265 C   0  0  0  0  0  0
   18.8149   -1.1323   53.4670 C   0  0  0  0  0  0
   20.1475   -0.8373   53.7510 C   0  0  0  0  0  0
   16.8317   -0.8319   52.1913 N   0  0  0  0  0  0
   15.7991    0.0552   52.0497 C   0  0  0  0  0  0
   14.6821   -0.6128   52.2897 O   0  0  0  0  0  0
   15.8790    1.2490   51.7792 O   0  0  0  0  0  0
   13.4710    0.0742   52.4919 C   0  0  0  0  0  0
   13.4016    0.4904   53.9555 C   0  0  0  0  0  0
   12.0859    1.1808   54.3073 C   0  0  0  0  0  0
   27.5702   -0.6099   54.8705 H   0  0  0  0  0  0
   24.1763    1.8701   52.2709 H   0  0  0  0  0  0
   26.3125    4.4476   50.9093 H   0  0  0  0  0  0
   25.1990    3.1106   50.6172 H   0  0  0  0  0  0
   25.1315    4.0261   52.1423 H   0  0  0  0  0  0
   30.4141    1.4786   54.1701 H   0  0  0  0  0  0
   29.0997    1.1042   55.2446 H   0  0  0  0  0  0
   29.7214   -0.1452   54.1379 H   0  0  0  0  0  0
   23.5632   -2.3489   56.2040 H   0  0  0  0  0  0
   22.5147    1.1467   52.4775 H   0  0  0  0  0  0
   20.6914    1.4642   51.2858 H   0  0  0  0  0  0
   18.3428    0.9650   50.8110 H   0  0  0  0  0  0
   18.2856   -1.8495   54.0780 H   0  0  0  0  0  0
   20.5621   -1.3469   54.6010 H   0  0  0  0  0  0
   16.5435   -1.7456   52.4971 H   0  0  0  0  0  0
   12.6469   -0.6018   52.2574 H   0  0  0  0  0  0
   13.3798    0.9398   51.8313 H   0  0  0  0  0  0
   14.2304    1.1649   54.1760 H   0  0  0  0  0  0
   13.5299   -0.3946   54.5759 H   0  0  0  0  0  0
   12.0625    1.4508   55.3633 H   0  0  0  0  0  0
   11.2281    0.5385   54.1057 H   0  0  0  0  0  0
   11.9580    2.0973   53.7316 H   0  0  0  0  0  0
  1  2  2  0  0  0
  1  4  1  0  0  0
  1  5  1  0  0  0
  2  3  1  0  0  0
  2  7  1  0  0  0
  3 10  2  0  0  0
  3 29  1  0  0  0
  4  9  2  0  0  0
  4 30  1  0  0  0
  5  6  1  0  0  0
  6 31  1  0  0  0
  6 32  1  0  0  0
  6 33  1  0  0  0
  7  8  1  0  0  0
  8 34  1  0  0  0
  8 35  1  0  0  0
  8 36  1  0  0  0
  9 10  1  0  0  0
  9 14  1  0  0  0
 10 11  1  0  0  0
 11 12  2  0  0  0
 12 13  1  0  0  0
 12 37  1  0  0  0
 13 14  2  0  0  0
 14 15  1  0  0  0
 15 16  1  0  0  0
 15 38  1  0  0  0
 16 17  2  0  0  0
 16 21  1  0  0  0
 17 18  1  0  0  0
 17 39  1  0  0  0
 18 19  2  0  0  0
 18 40  1  0  0  0
 19 20  1  0  0  0
 19 22  1  0  0  0
 20 21  2  0  0  0
 20 41  1  0  0  0
 21 42  1  0  0  0
 22 23  1  0  0  0
 22 43  1  0  0  0
 23 24  1  0  0  0
 23 25  2  0  0  0
 24 26  1  0  0  0
 26 27  1  0  0  0
 26 44  1  0  0  0
 26 45  1  0  0  0
 27 28  1  0  0  0
 27 46  1  0  0  0
 27 47  1  0  0  0
 28 48  1  0  0  0
 28 49  1  0  0  0
 28 50  1  0  0  0
M  END
> <s_m_entry_id>
458

> <s_m_entry_name>
pocket_pv.269

> <s_m_Source_Path>
/home/bortolaa/Project/GT/mario-master/docking/set505protein_struct_1_site_1_set505ligs_train

> <s_m_Source_File>
pocket_pv.maegz

> <i_m_Source_File_Index>
269

> <From>
www.bindingDB.org

> <BindingDB Reactant_set_id>
50927737

> <Ligand InChI>
InChI=1S/C20H22N4O4/c1-4-9-28-20(25)24-14-7-5-13(6-8-14)23-19-15-10-17(26-2)18(27-3)11-16(15)21-12-22-19/h5-8,10-12H,4,9H2,1-3H3,(H,24,25)(H,21,22,23)

> <Ligand InChI Key>
ZTXDXPUMWKTHBC-UHFFFAOYSA-N

> <BindingDB MonomerID>
50380454

> <BindingDB Ligand Name>
CHEMBL2018748

> <Target Name Assigned by Curator or DataSource>
Epidermal growth factor receptor

> <Target Source Organism According to Curator or DataSource>
Homo sapiens

> <Ki (nM)>


> <IC50 (nM)>
7050

> <Kd (nM)>


> <EC50 (nM)>


> <kon (M-1-s-1)>


> <koff (s-1)>


> <pH>


> <Temp C>


> <Curation/DataSource>
ChEMBL

> <Article DOI>
10.1021/jm2013453

> <PubChem AID>


> <Patent Number>


> <Authors>
Garofalo, A; Farce, A; Ravez, S; Lemoine, A; Six, P; Chavatte, P; Goossens, L; Depreux, P

> <Institution>
Univ. Lille Nord de France

> <Link to Ligand in BindingDB>
http://www.bindingdb.org/bind/chemsearch/marvin/MolStructure.jsp?monomerid=50380454

> <Link to Ligand-Target Pair in BindingDB>
http://www.bindingdb.org/jsp/dbsearch/PrimarySearch_ki.jsp?energyterm=kJ/mole&tag=r21&monomerid=50380454&enzyme=Epidermal+growth+factor+receptor&column=ki&startPg=0&Increment=50&submit=Search

> <Ligand HET ID in PDB>


> <PDB ID(s) for Ligand-Target Complex>


> <PubChem CID>
56953895

> <PubChem SID>
160859537

> <ChEBI ID of Ligand>


> <ChEMBL ID of Ligand>
CHEMBL2018748

> <DrugBank ID of Ligand>


> <IUPHAR_GRAC ID of Ligand>


> <KEGG ID of Ligand>


> <ZINC ID of Ligand>
ZINC84634575

> <Number of Protein Chains in Target (>
1

> <BindingDB Target Chain Sequence>
MRPSGTAGAALLALLAALCPASRALEEKKVCQGTSNKLTQLGTFEDHFLSLQRMFNNCEVVLGNLEITYVQRNYDLSFLKTIQEVAGYVLIALNTVERIPLENLQIIRGNMYYENSYALAVLSNYDANKTGLKELPMRNLQEILHGAVRFSNNPALCNVESIQWRDIVSSDFLSNMSMDFQNHLGSCQKCDPSCPNGSCWGAGEENCQKLTKIICAQQCSGRCRGKSPSDCCHNQCAAGCTGPRESDCLVCRKFRDEATCKDTCPPLMLYNPTTYQMDVNPEGKYSFGATCVKKCPRNYVVTDHGSCVRACGADSYEMEEDGVRKCKKCEGPCRKVCNGIGIGEFKDSLSINATNIKHFKNCTSISGDLHILPVAFRGDSFTHTPPLDPQELDILKTVKEITGFLLIQAWPENRTDLHAFENLEIIRGRTKQHGQFSLAVVSLNITSLGLRSLKEISDGDVIISGNKNLCYANTINWKKLFGTSGQKTKIISNRGENSCKATGQVCHALCSPEGCWGPEPRDCVSCRNVSRGRECVDKCNLLEGEPREFVENSECIQCHPECLPQAMNITCTGRGPDNCIQCAHYIDGPHCVKTCPAGVMGENNTLVWKYADAGHVCHLCHPNCTYGCTGPGLEGCPTNGPKIPSIATGMVGALLLLLVVALGIGLFMRRRHIVRKRTLRRLLQERELVEPLTPSGEAPNQALLRILKETEFKKIKVLGSGAFGTVYKGLWIPEGEKVKIPVAIKELREATSPKANKEILDEAYVMASVDNPHVCRLLGICLTSTVQLITQLMPFGCLLDYVREHKDNIGSQYLLNWCVQIAKGMNYLEDRRLVHRDLAARNVLVKTPQHVKITDFGLAKLLGAEEKEYHAEGGKVPIKWMALESILHRIYTHQSDVWSYGVTVWELMTFGSKPYDGIPASEISSILEKGERLPQPPICTIDVYMIMVKCWMIDADSRPKFRELIIEFSKMARDPQRYLVIQGDERMHLPSPTDSNFYRALMDEEDMDDVVDADEYLIPQQGFFSSPSTSRTPLLSSLSATSNNSTVACIDRNGLQSCPIKEDSFLQRYSSDPTGALTEDSIDDTFLPVPEYINQSVPKRPAGSVQNPVYHNQPLNPAPSRDPHYQDPHSTAVGNPEYLNTVQPTCVNSTFDSPAHWAQKGSHQISLDNPDYQQDFFPKEAKPNGIFKGSTAENAEYLRVAPQSSEFIGA

> <PDB ID(s) of Target Chain>
1IVO,1M14,1M17,1MOX,1XKK,1Z9I,2GS2,2GS6,2ITW,2ITX,2ITY,2J5E,2J5F,2J6M,2RF9,2RGP,3B2V,3BEL,3GOP,3POZ,3QWQ,3VJO,3W2O,3W2P,3W2Q,3W2R,3W2S,3W32,3W33,4G5J,4I23,4JQ7,4JQ8,4JR3,4JRV,4KRO,4LI5,4RJ4,4RJ5,4RJ6,4RJ7,4RJ8,4TKS,4UIP,4UV7,4WKQ,4WRG,4ZAU,5C8K,5C8M,5C8N,5CAL,5CAN,5CAO,5CAP,5CAQ,5CAS,5CAU,5CAV,5EDP,5EDQ,5EDR,5EM5,5EM6,5EM7,5EM8,5FED,5GNK,5HCX,5HCY,5HCZ,5HIB,5HIC,5UGB,5WB7,5WB8,5Y25,6S89,6S8A

> <UniProt (SwissProt) Recommended Name of Target Chain>
Epidermal growth factor receptor

> <UniProt (SwissProt) Entry Name of Target Chain>
EGFR_HUMAN

> <UniProt (SwissProt) Primary ID of Target Chain>
P00533

> <UniProt (SwissProt) Secondary ID(s) of Target Chain>
O00688,O00732,P06268,Q14225,Q68GS5,Q92795,Q9BZS2,Q9GZX1,Q9H2C9,Q9H3C9,Q9UMD7,Q9UMD8,Q9UMG5

> <UniProt (SwissProt) Alternative ID(s) of Target Chain>


> <UniProt (TrEMBL) Submitted Name of Target Chain>


> <UniProt (TrEMBL) Entry Name of Target Chain>


> <UniProt (TrEMBL) Primary ID of Target Chain>


> <UniProt (TrEMBL) Secondary ID(s) of Target Chain>


> <UniProt (TrEMBL) Alternative ID(s) of Target Chain>


> <training label>
5.15181

> <i_lp_mmshare_version>
54117

> <s_epik_input>
W0NIM11PYyhbY0hdMSljKE9bQ0gzXSlbY0hdYyhjMTIpbltjSF1uYzJbTkhdYzNbY0hdW2NIXWMoW2NIXVtjSF0zKVtOSF1DKD1PKU9bQ0gyXVtDSDJdW0NIM10=

> <s_epik_cmdline>
J2VwaWtfcHl0aG9uJywgJy1waHQnLCAnMC4xJywgJy1waCcsICc3LjQnLCAnLXRuJywgJzgnLCAnLW1hJywgJzIwMCcsICctaW1hZScsICc8aW5maWxlLm1hZT4nLCAnLW9tYWUnLCAnPG91dGZpbGUubWFlPic=

> <r_lp_tautomer_probability>
1

> <r_epik_Ionization_Penalty>
  0.0006

> <r_epik_Ionization_Penalty_Charging>
  0.0000

> <r_epik_Ionization_Penalty_Neutral>
  0.0006

> <r_epik_State_Penalty>
  0.0000

> <r_epik_Charging_Adjusted_Penalty>
0

> <i_epik_Tot_Q>
0

> <i_epik_Tot_abs_Q>
0

> <i_f3d_flags>
0

> <s_lp_Force_Field>
OPLS_2005

> <r_lp_Energy>
26.14791

> <b_lp_Chiralities_Consistent>
1

> <s_lp_Variant>
BindingDB_50380454_mol_1-1

> <s_i_glide_gridfile>
struct_1_site_1

> <i_i_glide_lignum>
31

> <i_i_glide_rotatable_bonds>
9

> <r_i_docking_score>
-5.74477876583572

> <r_i_glide_ligand_efficiency>
-0.205170670208419

> <r_i_glide_ligand_efficiency_sa>
-0.623018993815214

> <r_i_glide_ligand_efficiency_ln>
-1.32606361318879

> <r_i_glide_gscore>
-5.74477876583572

> <r_i_glide_lipo>
-2.5676307154172

> <r_i_glide_hbond>
-0.0692279960660367

> <r_i_glide_metal>
0

> <r_i_glide_rewards>
-1.36581508647696

> <r_i_glide_evdw>
-41.5929946899414

> <r_i_glide_ecoul>
-3.06189966201782

> <r_i_glide_erotb>
0.796829715924213

> <r_i_glide_esite>
0

> <r_i_glide_emodel>
-29.9456035569577

> <r_i_glide_energy>
-44.6548943519592

> <r_i_glide_einternal>
6.31836795806885

> <i_i_glide_confnum>
57

> <i_i_glide_posenum>
329

> <r_i_glide_eff_state_penalty>
0

> <PMID>
22229669

> <s_epik_Chemistry_Notes>
This compound has an ester and may undergo hydrolysis at high or low pH.

> <r_glide_shape_similarity>
0.719126999378204

> <s_m_subgroup_title>
505 training

> <s_m_subgroupid>
pocket_pv

> <b_m_subgroup_collapsed>
0

$$$$
/home/bortolaa/Project/GT/mario-master/ligands/set505ligs_train.sdf:51
                    3D
 Schrodinger Suite 2021-2.
 62 66  0  0  1  0            999 V2000
   14.5277    0.8886   51.8834 C   0  0  0  0  0  0
   13.5832   -0.1632   51.9284 C   0  0  0  0  0  0
   14.0051   -1.4691   52.2933 C   0  0  0  0  0  0
   15.8841    0.6149   52.1761 C   0  0  0  0  0  0
   16.2891   -0.6869   52.5450 C   0  0  0  0  0  0
   15.3494   -1.7449   52.6096 C   0  0  0  0  0  0
   15.7422   -2.9928   52.9748 N   0  0  0  0  0  0
   17.0086   -3.1491   53.3722 C   0  0  0  0  0  0
   17.9778   -2.2317   53.3343 N   0  0  0  0  0  0
   17.6276   -1.0139   52.8654 C   0  0  0  0  0  0
   18.6064   -0.0694   52.5742 N   0  0  0  0  0  0
   19.9798   -0.0528   52.7823 C   0  0  0  0  0  0
   20.6638    0.8449   51.9496 C   0  0  0  0  0  0
   22.0194    1.0961   52.1640 C   0  0  0  0  0  0
   22.7038    0.4391   53.2007 C   0  0  0  0  0  0
   22.0374   -0.5176   54.0100 C   0  0  0  0  0  0
   20.6657   -0.7663   53.7961 C   0  0  0  0  0  0
   24.0329    0.8678   53.3747 N   0  0  0  0  0  0
   25.0722    0.1413   53.7736 C   0  0  0  0  0  0
   26.2167    0.7351   53.4039 N   0  0  0  0  0  0
   24.9843   -0.8989   54.4274 O   0  0  0  0  0  0
   27.4983    0.1607   53.4513 C   0  0  0  0  0  0
   28.5829    1.0304   53.6574 C   0  0  0  0  0  0
   29.8772    0.4889   53.7714 C   0  0  0  0  0  0
   30.0914   -0.8966   53.6374 C   0  0  0  0  0  0
   29.0153   -1.7604   53.3747 C   0  0  0  0  0  0
   27.7166   -1.2302   53.2812 C   0  0  0  0  0  0
   14.0542    2.1424   51.5347 O   0  0  0  0  0  0
   14.9760    3.2327   51.4320 C   0  0  0  0  0  0
   12.2934    0.1421   51.5329 O   0  0  0  0  0  0
   11.2030   -0.6605   51.9814 C   0  0  0  0  0  0
   10.8374   -0.3687   53.4301 C   0  0  0  0  0  0
   10.0011    0.7328   53.7309 C   0  0  0  0  0  0
    9.6446    1.0122   55.0698 C   0  0  0  0  0  0
   10.1318    0.1938   56.1124 C   0  0  0  0  0  0
   10.9764   -0.9005   55.8171 C   0  0  0  0  0  0
   11.3285   -1.1841   54.4795 C   0  0  0  0  0  0
   13.3097   -2.2909   52.3301 H   0  0  0  0  0  0
   16.6042    1.4138   52.1393 H   0  0  0  0  0  0
   17.2789   -4.1322   53.7210 H   0  0  0  0  0  0
   18.2831    0.6648   51.9655 H   0  0  0  0  0  0
   20.1482    1.3873   51.1709 H   0  0  0  0  0  0
   22.5255    1.8207   51.5419 H   0  0  0  0  0  0
   22.5426   -1.0149   54.8213 H   0  0  0  0  0  0
   20.1428   -1.4441   54.4507 H   0  0  0  0  0  0
   24.2652    1.7281   52.9036 H   0  0  0  0  0  0
   26.1763    1.6819   53.0544 H   0  0  0  0  0  0
   28.4351    2.0949   53.7690 H   0  0  0  0  0  0
   30.7136    1.1364   53.9690 H   0  0  0  0  0  0
   31.0881   -1.2898   53.7403 H   0  0  0  0  0  0
   29.1804   -2.8213   53.2635 H   0  0  0  0  0  0
   26.8938   -1.9042   53.0914 H   0  0  0  0  0  0
   14.4307    4.1265   51.1153 H   0  0  0  0  0  0
   15.4582    3.4503   52.3913 H   0  0  0  0  0  0
   15.7396    3.0271   50.6742 H   0  0  0  0  0  0
   10.3440   -0.4056   51.3652 H   0  0  0  0  0  0
   11.3516   -1.7264   51.8118 H   0  0  0  0  0  0
    9.6314    1.3711   52.9410 H   0  0  0  0  0  0
    9.0003    1.8550   55.2832 H   0  0  0  0  0  0
    9.8657    0.4140   57.1342 H   0  0  0  0  0  0
   11.3612   -1.5194   56.6147 H   0  0  0  0  0  0
   11.9692   -2.0257   54.2655 H   0  0  0  0  0  0
  1  2  2  0  0  0
  1  4  1  0  0  0
  1 28  1  0  0  0
  2  3  1  0  0  0
  2 30  1  0  0  0
  3  6  2  0  0  0
  3 38  1  0  0  0
  4  5  2  0  0  0
  4 39  1  0  0  0
  5  6  1  0  0  0
  5 10  1  0  0  0
  6  7  1  0  0  0
  7  8  2  0  0  0
  8  9  1  0  0  0
  8 40  1  0  0  0
  9 10  2  0  0  0
 10 11  1  0  0  0
 11 12  1  0  0  0
 11 41  1  0  0  0
 12 13  2  0  0  0
 12 17  1  0  0  0
 13 14  1  0  0  0
 13 42  1  0  0  0
 14 15  2  0  0  0
 14 43  1  0  0  0
 15 16  1  0  0  0
 15 18  1  0  0  0
 16 17  2  0  0  0
 16 44  1  0  0  0
 17 45  1  0  0  0
 18 19  1  0  0  0
 18 46  1  0  0  0
 19 20  1  0  0  0
 19 21  2  0  0  0
 20 22  1  0  0  0
 20 47  1  0  0  0
 22 23  2  0  0  0
 22 27  1  0  0  0
 23 24  1  0  0  0
 23 48  1  0  0  0
 24 25  2  0  0  0
 24 49  1  0  0  0
 25 26  1  0  0  0
 25 50  1  0  0  0
 26 27  2  0  0  0
 26 51  1  0  0  0
 27 52  1  0  0  0
 28 29  1  0  0  0
 29 53  1  0  0  0
 29 54  1  0  0  0
 29 55  1  0  0  0
 30 31  1  0  0  0
 31 32  1  0  0  0
 31 56  1  0  0  0
 31 57  1  0  0  0
 32 33  2  0  0  0
 32 37  1  0  0  0
 33 34  1  0  0  0
 33 58  1  0  0  0
 34 35  2  0  0  0
 34 59  1  0  0  0
 35 36  1  0  0  0
 35 60  1  0  0  0
 36 37  2  0  0  0
 36 61  1  0  0  0
 37 62  1  0  0  0
M  END
> <s_m_entry_id>
459

> <s_m_entry_name>
pocket_pv.270

> <s_m_Source_Path>
/home/bortolaa/Project/GT/mario-master/docking/set505protein_struct_1_site_1_set505ligs_train

> <s_m_Source_File>
pocket_pv.maegz

> <i_m_Source_File_Index>
270

> <From>
www.bindingDB.org

> <BindingDB Reactant_set_id>
50553111

> <Ligand InChI>
InChI=1S/C29H25N5O3/c1-36-26-16-24-25(17-27(26)37-18-20-8-4-2-5-9-20)30-19-31-28(24)32-22-12-14-23(15-13-22)34-29(35)33-21-10-6-3-7-11-21/h2-17,19H,18H2,1H3,(H,30,31,32)(H2,33,34,35)

> <Ligand InChI Key>
BUGHTZSHXDNUKL-UHFFFAOYSA-N

> <BindingDB MonomerID>
50210703

> <BindingDB Ligand Name>
CHEMBL3983460

> <Target Name Assigned by Curator or DataSource>
Epidermal growth factor receptor

> <Target Source Organism According to Curator or DataSource>
Homo sapiens

> <Ki (nM)>


> <IC50 (nM)>
2933

> <Kd (nM)>


> <EC50 (nM)>


> <kon (M-1-s-1)>


> <koff (s-1)>


> <pH>


> <Temp C>


> <Curation/DataSource>
ChEMBL

> <Article DOI>
10.1016/j.ejmech.2016.09.039

> <PubChem AID>


> <Patent Number>


> <Authors>
Zhang, HQ; Gong, FH; Ye, JQ; Zhang, C; Yue, XH; Li, CG; Xu, YG; Sun, LP

> <Institution>
China Pharmaceutical University

> <Link to Ligand in BindingDB>
http://www.bindingdb.org/bind/chemsearch/marvin/MolStructure.jsp?monomerid=50210703

> <Link to Ligand-Target Pair in BindingDB>
http://www.bindingdb.org/jsp/dbsearch/PrimarySearch_ki.jsp?energyterm=kJ/mole&tag=r21&monomerid=50210703&enzyme=Epidermal+growth+factor+receptor&column=ki&startPg=0&Increment=50&submit=Search

> <Ligand HET ID in PDB>


> <PDB ID(s) for Ligand-Target Complex>


> <PubChem CID>
134156570

> <PubChem SID>
375982707

> <ChEBI ID of Ligand>


> <ChEMBL ID of Ligand>
CHEMBL3983460

> <DrugBank ID of Ligand>


> <IUPHAR_GRAC ID of Ligand>


> <KEGG ID of Ligand>


> <ZINC ID of Ligand>


> <Number of Protein Chains in Target (>
1

> <BindingDB Target Chain Sequence>
MRPSGTAGAALLALLAALCPASRALEEKKVCQGTSNKLTQLGTFEDHFLSLQRMFNNCEVVLGNLEITYVQRNYDLSFLKTIQEVAGYVLIALNTVERIPLENLQIIRGNMYYENSYALAVLSNYDANKTGLKELPMRNLQEILHGAVRFSNNPALCNVESIQWRDIVSSDFLSNMSMDFQNHLGSCQKCDPSCPNGSCWGAGEENCQKLTKIICAQQCSGRCRGKSPSDCCHNQCAAGCTGPRESDCLVCRKFRDEATCKDTCPPLMLYNPTTYQMDVNPEGKYSFGATCVKKCPRNYVVTDHGSCVRACGADSYEMEEDGVRKCKKCEGPCRKVCNGIGIGEFKDSLSINATNIKHFKNCTSISGDLHILPVAFRGDSFTHTPPLDPQELDILKTVKEITGFLLIQAWPENRTDLHAFENLEIIRGRTKQHGQFSLAVVSLNITSLGLRSLKEISDGDVIISGNKNLCYANTINWKKLFGTSGQKTKIISNRGENSCKATGQVCHALCSPEGCWGPEPRDCVSCRNVSRGRECVDKCNLLEGEPREFVENSECIQCHPECLPQAMNITCTGRGPDNCIQCAHYIDGPHCVKTCPAGVMGENNTLVWKYADAGHVCHLCHPNCTYGCTGPGLEGCPTNGPKIPSIATGMVGALLLLLVVALGIGLFMRRRHIVRKRTLRRLLQERELVEPLTPSGEAPNQALLRILKETEFKKIKVLGSGAFGTVYKGLWIPEGEKVKIPVAIKELREATSPKANKEILDEAYVMASVDNPHVCRLLGICLTSTVQLITQLMPFGCLLDYVREHKDNIGSQYLLNWCVQIAKGMNYLEDRRLVHRDLAARNVLVKTPQHVKITDFGLAKLLGAEEKEYHAEGGKVPIKWMALESILHRIYTHQSDVWSYGVTVWELMTFGSKPYDGIPASEISSILEKGERLPQPPICTIDVYMIMVKCWMIDADSRPKFRELIIEFSKMARDPQRYLVIQGDERMHLPSPTDSNFYRALMDEEDMDDVVDADEYLIPQQGFFSSPSTSRTPLLSSLSATSNNSTVACIDRNGLQSCPIKEDSFLQRYSSDPTGALTEDSIDDTFLPVPEYINQSVPKRPAGSVQNPVYHNQPLNPAPSRDPHYQDPHSTAVGNPEYLNTVQPTCVNSTFDSPAHWAQKGSHQISLDNPDYQQDFFPKEAKPNGIFKGSTAENAEYLRVAPQSSEFIGA

> <PDB ID(s) of Target Chain>
1IVO,1M14,1M17,1MOX,1XKK,1Z9I,2GS2,2GS6,2ITW,2ITX,2ITY,2J5E,2J5F,2J6M,2RF9,2RGP,3B2V,3BEL,3GOP,3POZ,3QWQ,3VJO,3W2O,3W2P,3W2Q,3W2R,3W2S,3W32,3W33,4G5J,4I23,4JQ7,4JQ8,4JR3,4JRV,4KRO,4LI5,4RJ4,4RJ5,4RJ6,4RJ7,4RJ8,4TKS,4UIP,4UV7,4WKQ,4WRG,4ZAU,5C8K,5C8M,5C8N,5CAL,5CAN,5CAO,5CAP,5CAQ,5CAS,5CAU,5CAV,5EDP,5EDQ,5EDR,5EM5,5EM6,5EM7,5EM8,5FED,5GNK,5HCX,5HCY,5HCZ,5HIB,5HIC,5UGB,5WB7,5WB8,5Y25,6S89,6S8A

> <UniProt (SwissProt) Recommended Name of Target Chain>
Epidermal growth factor receptor

> <UniProt (SwissProt) Entry Name of Target Chain>
EGFR_HUMAN

> <UniProt (SwissProt) Primary ID of Target Chain>
P00533

> <UniProt (SwissProt) Secondary ID(s) of Target Chain>
O00688,O00732,P06268,Q14225,Q68GS5,Q92795,Q9BZS2,Q9GZX1,Q9H2C9,Q9H3C9,Q9UMD7,Q9UMD8,Q9UMG5

> <UniProt (SwissProt) Alternative ID(s) of Target Chain>


> <UniProt (TrEMBL) Submitted Name of Target Chain>


> <UniProt (TrEMBL) Entry Name of Target Chain>


> <UniProt (TrEMBL) Primary ID of Target Chain>


> <UniProt (TrEMBL) Secondary ID(s) of Target Chain>


> <UniProt (TrEMBL) Alternative ID(s) of Target Chain>


> <training label>
5.53269

> <i_lp_mmshare_version>
54117

> <s_epik_input>
W2NIXTFbY0hdW2NIXVtjSF1bY0hdYzFbQ0gyXU9jKGMoW2NIXTIpT1tDSDNdKVtjSF1jKGMyMyluW2NIXW5jM1tOSF1jNFtjSF1bY0hdYyhbY0hdW2NIXTQpW05IXUMoPU8pW05IXWM1W2NIXVtjSF1bY0hdW2NIXVtjSF01

> <s_epik_cmdline>
J2VwaWtfcHl0aG9uJywgJy1waHQnLCAnMC4xJywgJy1waCcsICc3LjQnLCAnLXRuJywgJzgnLCAnLW1hJywgJzIwMCcsICctaW1hZScsICc8aW5maWxlLm1hZT4nLCAnLW9tYWUnLCAnPG91dGZpbGUubWFlPic=

> <r_lp_tautomer_probability>
1

> <r_epik_Ionization_Penalty>
  0.0011

> <r_epik_Ionization_Penalty_Charging>
  0.0000

> <r_epik_Ionization_Penalty_Neutral>
  0.0011

> <r_epik_State_Penalty>
  0.0000

> <r_epik_Charging_Adjusted_Penalty>
0

> <i_epik_Tot_Q>
0

> <i_epik_Tot_abs_Q>
0

> <i_f3d_flags>
0

> <s_lp_Force_Field>
OPLS_2005

> <r_lp_Energy>
43.196674

> <b_lp_Chiralities_Consistent>
1

> <s_lp_Variant>
/home/bortolaa/Project/GT/mario-master/ligands/set505ligs_train.sdf:51-1

> <s_i_glide_gridfile>
struct_1_site_1

> <i_i_glide_lignum>
51

> <i_i_glide_rotatable_bonds>
10

> <r_i_docking_score>
-5.74097221942285

> <r_i_glide_ligand_efficiency>
-0.155161411335753

> <r_i_glide_ligand_efficiency_sa>
-0.517032244762901

> <r_i_glide_ligand_efficiency_ln>
-1.24508228690859

> <r_i_glide_gscore>
-5.74097221942285

> <r_i_glide_lipo>
-3.1096236571229

> <r_i_glide_hbond>
0

> <r_i_glide_metal>
0

> <r_i_glide_rewards>
-0.476377057976148

> <r_i_glide_evdw>
-49.6931762695312

> <r_i_glide_ecoul>
-2.29595994949341

> <r_i_glide_erotb>
0.674081301576776

> <r_i_glide_esite>
0

> <r_i_glide_emodel>
-21.3933215983996

> <r_i_glide_energy>
-51.9891362190247

> <r_i_glide_einternal>
7.73289489746094

> <i_i_glide_confnum>
25

> <i_i_glide_posenum>
187

> <r_i_glide_eff_state_penalty>
0

> <PMID>
27688180

> <r_glide_shape_similarity>
0.518157184123993

> <s_m_subgroup_title>
505 training

> <s_m_subgroupid>
pocket_pv

> <b_m_subgroup_collapsed>
0

$$$$
BindingDB_50380456_mol_1
                    3D
 Schrodinger Suite 2021-2.
 50 52  0  0  1  0            999 V2000
   26.2918    1.6875   52.7178 C   0  0  0  0  0  0
   27.2637    0.9631   53.4174 C   0  0  0  0  0  0
   26.8615   -0.0705   54.2751 C   0  0  0  0  0  0
   24.9291    1.3272   52.8237 C   0  0  0  0  0  0
   26.7519    2.7219   51.9413 O   0  0  0  0  0  0
   25.7972    3.6250   51.4082 C   0  0  0  0  0  0
   28.5708    1.3348   53.2449 O   0  0  0  0  0  0
   29.4858    0.9180   54.2379 C   0  0  0  0  0  0
   24.5352    0.2913   53.6888 C   0  0  0  0  0  0
   25.5044   -0.3727   54.4635 C   0  0  0  0  0  0
   25.1356   -1.2659   55.3994 N   0  0  0  0  0  0
   23.8478   -1.5488   55.5185 C   0  0  0  0  0  0
   22.8751   -1.0613   54.7738 N   0  0  0  0  0  0
   23.2030   -0.1342   53.8610 C   0  0  0  0  0  0
   22.1898    0.4240   53.0885 N   0  0  0  0  0  0
   20.8514    0.0657   52.9385 C   0  0  0  0  0  0
   20.1676   -0.8659   53.7476 C   0  0  0  0  0  0
   18.8218   -1.1423   53.5129 C   0  0  0  0  0  0
   18.1336   -0.4748   52.4978 C   0  0  0  0  0  0
   18.8029    0.4468   51.6728 C   0  0  0  0  0  0
   20.1617    0.7080   51.8974 C   0  0  0  0  0  0
   16.7773   -0.7902   52.3733 N   0  0  0  0  0  0
   15.7763    0.1178   52.1776 C   0  0  0  0  0  0
   14.7004   -0.3789   52.7729 O   0  0  0  0  0  0
   15.8446    1.1849   51.5729 O   0  0  0  0  0  0
   13.4735    0.3101   52.7273 C   0  0  0  0  0  0
   12.3701   -0.7362   52.8894 C   0  0  0  0  0  0
   13.4196    1.3638   53.8318 C   0  0  0  0  0  0
   27.5823   -0.6281   54.8439 H   0  0  0  0  0  0
   24.1849    1.8626   52.2586 H   0  0  0  0  0  0
   26.3073    4.4728   50.9522 H   0  0  0  0  0  0
   25.1970    3.1552   50.6312 H   0  0  0  0  0  0
   25.1409    4.0238   52.1841 H   0  0  0  0  0  0
   30.4167    1.4793   54.1658 H   0  0  0  0  0  0
   29.0966    1.1342   55.2331 H   0  0  0  0  0  0
   29.7237   -0.1446   54.1583 H   0  0  0  0  0  0
   23.5530   -2.2010   56.3232 H   0  0  0  0  0  0
   22.5128    1.1256   52.4480 H   0  0  0  0  0  0
   20.5943   -1.3908   54.5821 H   0  0  0  0  0  0
   18.3053   -1.8441   54.1524 H   0  0  0  0  0  0
   18.2885    0.9572   50.8720 H   0  0  0  0  0  0
   20.6687    1.4206   51.2644 H   0  0  0  0  0  0
   16.4662   -1.6042   52.8784 H   0  0  0  0  0  0
   13.3473    0.7942   51.7582 H   0  0  0  0  0  0
   11.3879   -0.2672   52.8538 H   0  0  0  0  0  0
   12.4541   -1.2604   53.8423 H   0  0  0  0  0  0
   12.4129   -1.4757   52.0850 H   0  0  0  0  0  0
   12.4850    1.9243   53.7850 H   0  0  0  0  0  0
   13.4747    0.9021   54.8145 H   0  0  0  0  0  0
   14.2369    2.0790   53.7475 H   0  0  0  0  0  0
  1  2  2  0  0  0
  1  4  1  0  0  0
  1  5  1  0  0  0
  2  3  1  0  0  0
  2  7  1  0  0  0
  3 10  2  0  0  0
  3 29  1  0  0  0
  4  9  2  0  0  0
  4 30  1  0  0  0
  5  6  1  0  0  0
  6 31  1  0  0  0
  6 32  1  0  0  0
  6 33  1  0  0  0
  7  8  1  0  0  0
  8 34  1  0  0  0
  8 35  1  0  0  0
  8 36  1  0  0  0
  9 10  1  0  0  0
  9 14  1  0  0  0
 10 11  1  0  0  0
 11 12  2  0  0  0
 12 13  1  0  0  0
 12 37  1  0  0  0
 13 14  2  0  0  0
 14 15  1  0  0  0
 15 16  1  0  0  0
 15 38  1  0  0  0
 16 17  2  0  0  0
 16 21  1  0  0  0
 17 18  1  0  0  0
 17 39  1  0  0  0
 18 19  2  0  0  0
 18 40  1  0  0  0
 19 20  1  0  0  0
 19 22  1  0  0  0
 20 21  2  0  0  0
 20 41  1  0  0  0
 21 42  1  0  0  0
 22 23  1  0  0  0
 22 43  1  0  0  0
 23 24  1  0  0  0
 23 25  2  0  0  0
 24 26  1  0  0  0
 26 27  1  0  0  0
 26 28  1  0  0  0
 26 44  1  0  0  0
 27 45  1  0  0  0
 27 46  1  0  0  0
 27 47  1  0  0  0
 28 48  1  0  0  0
 28 49  1  0  0  0
 28 50  1  0  0  0
M  END
> <s_m_entry_id>
460

> <s_m_entry_name>
pocket_pv.271

> <s_m_Source_Path>
/home/bortolaa/Project/GT/mario-master/docking/set505protein_struct_1_site_1_set505ligs_train

> <s_m_Source_File>
pocket_pv.maegz

> <i_m_Source_File_Index>
271

> <From>
www.bindingDB.org

> <BindingDB Reactant_set_id>
50927739

> <Ligand InChI>
InChI=1S/C20H22N4O4/c1-12(2)28-20(25)24-14-7-5-13(6-8-14)23-19-15-9-17(26-3)18(27-4)10-16(15)21-11-22-19/h5-12H,1-4H3,(H,24,25)(H,21,22,23)

> <Ligand InChI Key>
LUKCMJKDYJFFPZ-UHFFFAOYSA-N

> <BindingDB MonomerID>
50380456

> <BindingDB Ligand Name>
CHEMBL2018750

> <Target Name Assigned by Curator or DataSource>
Epidermal growth factor receptor

> <Target Source Organism According to Curator or DataSource>
Homo sapiens

> <Ki (nM)>


> <IC50 (nM)>
4800

> <Kd (nM)>


> <EC50 (nM)>


> <kon (M-1-s-1)>


> <koff (s-1)>


> <pH>


> <Temp C>


> <Curation/DataSource>
ChEMBL

> <Article DOI>
10.1021/jm2013453

> <PubChem AID>


> <Patent Number>


> <Authors>
Garofalo, A; Farce, A; Ravez, S; Lemoine, A; Six, P; Chavatte, P; Goossens, L; Depreux, P

> <Institution>
Univ. Lille Nord de France

> <Link to Ligand in BindingDB>
http://www.bindingdb.org/bind/chemsearch/marvin/MolStructure.jsp?monomerid=50380456

> <Link to Ligand-Target Pair in BindingDB>
http://www.bindingdb.org/jsp/dbsearch/PrimarySearch_ki.jsp?energyterm=kJ/mole&tag=r21&monomerid=50380456&enzyme=Epidermal+growth+factor+receptor&column=ki&startPg=0&Increment=50&submit=Search

> <Ligand HET ID in PDB>


> <PDB ID(s) for Ligand-Target Complex>


> <PubChem CID>
56954004

> <PubChem SID>
160859539

> <ChEBI ID of Ligand>


> <ChEMBL ID of Ligand>
CHEMBL2018750

> <DrugBank ID of Ligand>


> <IUPHAR_GRAC ID of Ligand>


> <KEGG ID of Ligand>


> <ZINC ID of Ligand>
ZINC84634576

> <Number of Protein Chains in Target (>
1

> <BindingDB Target Chain Sequence>
MRPSGTAGAALLALLAALCPASRALEEKKVCQGTSNKLTQLGTFEDHFLSLQRMFNNCEVVLGNLEITYVQRNYDLSFLKTIQEVAGYVLIALNTVERIPLENLQIIRGNMYYENSYALAVLSNYDANKTGLKELPMRNLQEILHGAVRFSNNPALCNVESIQWRDIVSSDFLSNMSMDFQNHLGSCQKCDPSCPNGSCWGAGEENCQKLTKIICAQQCSGRCRGKSPSDCCHNQCAAGCTGPRESDCLVCRKFRDEATCKDTCPPLMLYNPTTYQMDVNPEGKYSFGATCVKKCPRNYVVTDHGSCVRACGADSYEMEEDGVRKCKKCEGPCRKVCNGIGIGEFKDSLSINATNIKHFKNCTSISGDLHILPVAFRGDSFTHTPPLDPQELDILKTVKEITGFLLIQAWPENRTDLHAFENLEIIRGRTKQHGQFSLAVVSLNITSLGLRSLKEISDGDVIISGNKNLCYANTINWKKLFGTSGQKTKIISNRGENSCKATGQVCHALCSPEGCWGPEPRDCVSCRNVSRGRECVDKCNLLEGEPREFVENSECIQCHPECLPQAMNITCTGRGPDNCIQCAHYIDGPHCVKTCPAGVMGENNTLVWKYADAGHVCHLCHPNCTYGCTGPGLEGCPTNGPKIPSIATGMVGALLLLLVVALGIGLFMRRRHIVRKRTLRRLLQERELVEPLTPSGEAPNQALLRILKETEFKKIKVLGSGAFGTVYKGLWIPEGEKVKIPVAIKELREATSPKANKEILDEAYVMASVDNPHVCRLLGICLTSTVQLITQLMPFGCLLDYVREHKDNIGSQYLLNWCVQIAKGMNYLEDRRLVHRDLAARNVLVKTPQHVKITDFGLAKLLGAEEKEYHAEGGKVPIKWMALESILHRIYTHQSDVWSYGVTVWELMTFGSKPYDGIPASEISSILEKGERLPQPPICTIDVYMIMVKCWMIDADSRPKFRELIIEFSKMARDPQRYLVIQGDERMHLPSPTDSNFYRALMDEEDMDDVVDADEYLIPQQGFFSSPSTSRTPLLSSLSATSNNSTVACIDRNGLQSCPIKEDSFLQRYSSDPTGALTEDSIDDTFLPVPEYINQSVPKRPAGSVQNPVYHNQPLNPAPSRDPHYQDPHSTAVGNPEYLNTVQPTCVNSTFDSPAHWAQKGSHQISLDNPDYQQDFFPKEAKPNGIFKGSTAENAEYLRVAPQSSEFIGA

> <PDB ID(s) of Target Chain>
1IVO,1M14,1M17,1MOX,1XKK,1Z9I,2GS2,2GS6,2ITW,2ITX,2ITY,2J5E,2J5F,2J6M,2RF9,2RGP,3B2V,3BEL,3GOP,3POZ,3QWQ,3VJO,3W2O,3W2P,3W2Q,3W2R,3W2S,3W32,3W33,4G5J,4I23,4JQ7,4JQ8,4JR3,4JRV,4KRO,4LI5,4RJ4,4RJ5,4RJ6,4RJ7,4RJ8,4TKS,4UIP,4UV7,4WKQ,4WRG,4ZAU,5C8K,5C8M,5C8N,5CAL,5CAN,5CAO,5CAP,5CAQ,5CAS,5CAU,5CAV,5EDP,5EDQ,5EDR,5EM5,5EM6,5EM7,5EM8,5FED,5GNK,5HCX,5HCY,5HCZ,5HIB,5HIC,5UGB,5WB7,5WB8,5Y25,6S89,6S8A

> <UniProt (SwissProt) Recommended Name of Target Chain>
Epidermal growth factor receptor

> <UniProt (SwissProt) Entry Name of Target Chain>
EGFR_HUMAN

> <UniProt (SwissProt) Primary ID of Target Chain>
P00533

> <UniProt (SwissProt) Secondary ID(s) of Target Chain>
O00688,O00732,P06268,Q14225,Q68GS5,Q92795,Q9BZS2,Q9GZX1,Q9H2C9,Q9H3C9,Q9UMD7,Q9UMD8,Q9UMG5

> <UniProt (SwissProt) Alternative ID(s) of Target Chain>


> <UniProt (TrEMBL) Submitted Name of Target Chain>


> <UniProt (TrEMBL) Entry Name of Target Chain>


> <UniProt (TrEMBL) Primary ID of Target Chain>


> <UniProt (TrEMBL) Secondary ID(s) of Target Chain>


> <UniProt (TrEMBL) Alternative ID(s) of Target Chain>


> <training label>
5.31876

> <i_lp_mmshare_version>
54117

> <s_epik_input>
W0NIM11PYyhbY0hdMSljKE9bQ0gzXSlbY0hdYyhjMTIpbltjSF1uYzJbTkhdYzNbY0hdW2NIXWMoW2NIXVtjSF0zKVtOSF1DKD1PKU9bQ0hdKFtDSDNdKVtDSDNd

> <s_epik_cmdline>
J2VwaWtfcHl0aG9uJywgJy1waHQnLCAnMC4xJywgJy1waCcsICc3LjQnLCAnLXRuJywgJzgnLCAnLW1hJywgJzIwMCcsICctaW1hZScsICc8aW5maWxlLm1hZT4nLCAnLW9tYWUnLCAnPG91dGZpbGUubWFlPic=

> <r_lp_tautomer_probability>
1

> <r_epik_Ionization_Penalty>
  0.0007

> <r_epik_Ionization_Penalty_Charging>
  0.0000

> <r_epik_Ionization_Penalty_Neutral>
  0.0007

> <r_epik_State_Penalty>
  0.0000

> <r_epik_Charging_Adjusted_Penalty>
0

> <i_epik_Tot_Q>
0

> <i_epik_Tot_abs_Q>
0

> <i_f3d_flags>
0

> <s_lp_Force_Field>
OPLS_2005

> <r_lp_Energy>
25.809714

> <b_lp_Chiralities_Consistent>
1

> <s_lp_Variant>
BindingDB_50380456_mol_1-1

> <s_i_glide_gridfile>
struct_1_site_1

> <i_i_glide_lignum>
39

> <i_i_glide_rotatable_bonds>
8

> <r_i_docking_score>
-5.72286528487267

> <r_i_glide_ligand_efficiency>
-0.20438804588831

> <r_i_glide_ligand_efficiency_sa>
-0.620642485438288

> <r_i_glide_ligand_efficiency_ln>
-1.32100533837476

> <r_i_glide_gscore>
-5.72286528487267

> <r_i_glide_lipo>
-2.44753589641155

> <r_i_glide_hbond>
-0.0735666555379252

> <r_i_glide_metal>
0

> <r_i_glide_rewards>
-1.37894214592787

> <r_i_glide_evdw>
-40.953311920166

> <r_i_glide_ecoul>
-2.92786502838135

> <r_i_glide_erotb>
0.664024763270178

> <r_i_glide_esite>
0

> <r_i_glide_emodel>
-31.9614827973874

> <r_i_glide_energy>
-43.8811769485474

> <r_i_glide_einternal>
1.34368944168091

> <i_i_glide_confnum>
44

> <i_i_glide_posenum>
212

> <r_i_glide_eff_state_penalty>
0

> <PMID>
22229669

> <s_epik_Chemistry_Notes>
This compound has an ester and may undergo hydrolysis at high or low pH.

> <r_glide_shape_similarity>
0.721550583839417

> <s_m_subgroup_title>
505 training

> <s_m_subgroupid>
pocket_pv

> <b_m_subgroup_collapsed>
0

$$$$
BindingDB_50144606_mol_1
                    3D
 Schrodinger Suite 2021-2.
 44 47  0  0  1  0            999 V2000
   23.9397   -0.3121   54.1800 N   0  0  0  0  0  0
   25.3871    0.1270   54.2673 C   0  0  2  0  0  0
   22.8979    0.2100   53.4442 C   0  0  0  0  0  0
   21.7391   -0.5405   53.7809 C   0  0  0  0  0  0
   22.0327   -1.4785   54.7530 N   0  0  0  0  0  0
   25.9214    1.1791   53.2941 C   0  0  1  0  0  0
   23.3396   -1.2680   54.9221 C   0  0  0  0  0  0
   26.2150   -0.9545   54.0471 O   0  0  0  0  0  0
   27.4200    0.9301   53.3291 C   0  0  2  0  0  0
   27.5454   -0.4484   53.9871 C   0  0  2  0  0  0
   20.5738   -0.1724   53.0677 C   0  0  0  0  0  0
   22.9401    1.2364   52.5564 N   0  0  0  0  0  0
   20.6391    0.7898   52.1331 N   0  0  0  0  0  0
   18.9781   -0.8694   53.2739 S   0  0  0  0  0  0
   21.7776    1.4336   51.9464 C   0  0  0  0  0  0
   25.5199    0.9449   51.9797 O   0  0  0  0  0  0
   28.0473    1.8924   54.1256 O   0  0  0  0  0  0
   18.0161    0.0089   51.9976 C   0  0  0  0  0  0
   13.7069    0.0266   52.2333 C   0  0  0  0  0  0
   16.5163   -0.1055   52.0919 C   0  0  0  0  0  0
   28.4508   -1.4347   53.2535 C   0  0  0  0  0  0
   11.6292    0.1454   52.3637 I   0  0  0  0  0  0
   14.4526   -0.2698   53.3736 C   0  0  0  0  0  0
   14.3629    0.2392   51.0109 C   0  0  0  0  0  0
   15.8513   -0.3492   53.3019 C   0  0  0  0  0  0
   15.7632    0.1763   50.9438 C   0  0  0  0  0  0
   29.7871   -1.2533   53.6393 O   0  0  0  0  0  0
   25.4994    0.4321   55.3056 H   0  0  0  0  0  0
   25.6244    2.1823   53.6035 H   0  0  0  0  0  0
   23.9054   -1.8469   55.6395 H   0  0  0  0  0  0
   27.8674    0.9719   52.3380 H   0  0  0  0  0  0
   27.8702   -0.3531   55.0252 H   0  0  0  0  0  0
   21.7596    2.2162   51.2047 H   0  0  0  0  0  0
   24.5734    1.0789   51.9851 H   0  0  0  0  0  0
   28.7692    2.2604   53.6417 H   0  0  0  0  0  0
   18.1970    1.0806   52.0760 H   0  0  0  0  0  0
   18.3533   -0.3174   51.0120 H   0  0  0  0  0  0
   28.3517   -1.3169   52.1805 H   0  0  0  0  0  0
   28.1698   -2.4607   53.4963 H   0  0  0  0  0  0
   13.9458   -0.4413   54.3110 H   0  0  0  0  0  0
   13.7929    0.4686   50.1241 H   0  0  0  0  0  0
   16.4107   -0.5694   54.1935 H   0  0  0  0  0  0
   16.2576    0.3815   50.0046 H   0  0  0  0  0  0
   30.0223   -0.3500   53.4851 H   0  0  0  0  0  0
  1  2  1  0  0  0
  1  3  1  0  0  0
  1  7  1  0  0  0
  2  6  1  0  0  0
  2  8  1  0  0  0
  2 28  1  0  0  0
  3  4  2  0  0  0
  3 12  1  0  0  0
  4 11  1  0  0  0
  4  5  1  0  0  0
  5  7  2  0  0  0
  6  9  1  0  0  0
  6 16  1  0  0  0
  6 29  1  0  0  0
  7 30  1  0  0  0
  8 10  1  0  0  0
  9 17  1  0  0  0
  9 10  1  0  0  0
  9 31  1  0  0  0
 10 21  1  0  0  0
 10 32  1  0  0  0
 11 14  1  0  0  0
 11 13  2  0  0  0
 12 15  2  0  0  0
 13 15  1  0  0  0
 14 18  1  0  0  0
 15 33  1  0  0  0
 16 34  1  0  0  0
 17 35  1  0  0  0
 18 20  1  0  0  0
 18 36  1  0  0  0
 18 37  1  0  0  0
 19 24  2  0  0  0
 19 22  1  0  0  0
 19 23  1  0  0  0
 20 25  1  0  0  0
 20 26  2  0  0  0
 21 27  1  0  0  0
 21 38  1  0  0  0
 21 39  1  0  0  0
 23 25  2  0  0  0
 23 40  1  0  0  0
 24 26  1  0  0  0
 24 41  1  0  0  0
 25 42  1  0  0  0
 26 43  1  0  0  0
 27 44  1  0  0  0
M  END
> <s_m_entry_id>
461

> <s_m_entry_name>
pocket_pv.272

> <s_m_Source_Path>
/home/bortolaa/Project/GT/mario-master/docking/set505protein_struct_1_site_1_set505ligs_train

> <s_m_Source_File>
pocket_pv.maegz

> <i_m_Source_File_Index>
272

> <From>
www.bindingDB.org

> <BindingDB Reactant_set_id>
50463846

> <Ligand InChI>
InChI=1S/C29H23ClN4O3/c1-36-26-15-23-25(16-27(26)37-17-19-7-3-2-4-8-19)31-18-32-28(23)33-20-11-13-21(14-12-20)34-29(35)22-9-5-6-10-24(22)30/h2-16,18H,17H2,1H3,(H,34,35)(H,31,32,33)

> <Ligand InChI Key>
JASSTMZJDQXQFP-UHFFFAOYSA-N

> <BindingDB MonomerID>
50144606

> <BindingDB Ligand Name>
CHEMBL3759203

> <Target Name Assigned by Curator or DataSource>
Epidermal growth factor receptor

> <Target Source Organism According to Curator or DataSource>
Homo sapiens

> <Ki (nM)>


> <IC50 (nM)>
730

> <Kd (nM)>


> <EC50 (nM)>


> <kon (M-1-s-1)>


> <koff (s-1)>


> <pH>


> <Temp C>


> <Curation/DataSource>
ChEMBL

> <Article DOI>
10.1016/j.ejmech.2015.12.032

> <PubChem AID>


> <Patent Number>


> <Authors>
Zhang, HQ; Gong, FH; Li, CG; Zhang, C; Wang, YJ; Xu, YG; Sun, LP

> <Institution>
China Pharmaceutical University

> <Link to Ligand in BindingDB>
http://www.bindingdb.org/bind/chemsearch/marvin/MolStructure.jsp?monomerid=50144606

> <Link to Ligand-Target Pair in BindingDB>
http://www.bindingdb.org/jsp/dbsearch/PrimarySearch_ki.jsp?energyterm=kJ/mole&tag=r21&monomerid=50144606&enzyme=Epidermal+growth+factor+receptor&column=ki&startPg=0&Increment=50&submit=Search

> <Ligand HET ID in PDB>


> <PDB ID(s) for Ligand-Target Complex>


> <PubChem CID>
44312149

> <PubChem SID>
104033684

> <ChEBI ID of Ligand>


> <ChEMBL ID of Ligand>
CHEMBL3759203

> <DrugBank ID of Ligand>


> <IUPHAR_GRAC ID of Ligand>


> <KEGG ID of Ligand>


> <ZINC ID of Ligand>
ZINC36332177

> <Number of Protein Chains in Target (>
1

> <BindingDB Target Chain Sequence>
MRPSGTAGAALLALLAALCPASRALEEKKVCQGTSNKLTQLGTFEDHFLSLQRMFNNCEVVLGNLEITYVQRNYDLSFLKTIQEVAGYVLIALNTVERIPLENLQIIRGNMYYENSYALAVLSNYDANKTGLKELPMRNLQEILHGAVRFSNNPALCNVESIQWRDIVSSDFLSNMSMDFQNHLGSCQKCDPSCPNGSCWGAGEENCQKLTKIICAQQCSGRCRGKSPSDCCHNQCAAGCTGPRESDCLVCRKFRDEATCKDTCPPLMLYNPTTYQMDVNPEGKYSFGATCVKKCPRNYVVTDHGSCVRACGADSYEMEEDGVRKCKKCEGPCRKVCNGIGIGEFKDSLSINATNIKHFKNCTSISGDLHILPVAFRGDSFTHTPPLDPQELDILKTVKEITGFLLIQAWPENRTDLHAFENLEIIRGRTKQHGQFSLAVVSLNITSLGLRSLKEISDGDVIISGNKNLCYANTINWKKLFGTSGQKTKIISNRGENSCKATGQVCHALCSPEGCWGPEPRDCVSCRNVSRGRECVDKCNLLEGEPREFVENSECIQCHPECLPQAMNITCTGRGPDNCIQCAHYIDGPHCVKTCPAGVMGENNTLVWKYADAGHVCHLCHPNCTYGCTGPGLEGCPTNGPKIPSIATGMVGALLLLLVVALGIGLFMRRRHIVRKRTLRRLLQERELVEPLTPSGEAPNQALLRILKETEFKKIKVLGSGAFGTVYKGLWIPEGEKVKIPVAIKELREATSPKANKEILDEAYVMASVDNPHVCRLLGICLTSTVQLITQLMPFGCLLDYVREHKDNIGSQYLLNWCVQIAKGMNYLEDRRLVHRDLAARNVLVKTPQHVKITDFGLAKLLGAEEKEYHAEGGKVPIKWMALESILHRIYTHQSDVWSYGVTVWELMTFGSKPYDGIPASEISSILEKGERLPQPPICTIDVYMIMVKCWMIDADSRPKFRELIIEFSKMARDPQRYLVIQGDERMHLPSPTDSNFYRALMDEEDMDDVVDADEYLIPQQGFFSSPSTSRTPLLSSLSATSNNSTVACIDRNGLQSCPIKEDSFLQRYSSDPTGALTEDSIDDTFLPVPEYINQSVPKRPAGSVQNPVYHNQPLNPAPSRDPHYQDPHSTAVGNPEYLNTVQPTCVNSTFDSPAHWAQKGSHQISLDNPDYQQDFFPKEAKPNGIFKGSTAENAEYLRVAPQSSEFIGA

> <PDB ID(s) of Target Chain>
1IVO,1M14,1M17,1MOX,1XKK,1Z9I,2GS2,2GS6,2ITW,2ITX,2ITY,2J5E,2J5F,2J6M,2RF9,2RGP,3B2V,3BEL,3GOP,3POZ,3QWQ,3VJO,3W2O,3W2P,3W2Q,3W2R,3W2S,3W32,3W33,4G5J,4I23,4JQ7,4JQ8,4JR3,4JRV,4KRO,4LI5,4RJ4,4RJ5,4RJ6,4RJ7,4RJ8,4TKS,4UIP,4UV7,4WKQ,4WRG,4ZAU,5C8K,5C8M,5C8N,5CAL,5CAN,5CAO,5CAP,5CAQ,5CAS,5CAU,5CAV,5EDP,5EDQ,5EDR,5EM5,5EM6,5EM7,5EM8,5FED,5GNK,5HCX,5HCY,5HCZ,5HIB,5HIC,5UGB,5WB7,5WB8,5Y25,6S89,6S8A

> <UniProt (SwissProt) Recommended Name of Target Chain>
Epidermal growth factor receptor

> <UniProt (SwissProt) Entry Name of Target Chain>
EGFR_HUMAN

> <UniProt (SwissProt) Primary ID of Target Chain>
P00533

> <UniProt (SwissProt) Secondary ID(s) of Target Chain>
O00688,O00732,P06268,Q14225,Q68GS5,Q92795,Q9BZS2,Q9GZX1,Q9H2C9,Q9H3C9,Q9UMD7,Q9UMD8,Q9UMG5

> <UniProt (SwissProt) Alternative ID(s) of Target Chain>


> <UniProt (TrEMBL) Submitted Name of Target Chain>


> <UniProt (TrEMBL) Entry Name of Target Chain>


> <UniProt (TrEMBL) Primary ID of Target Chain>


> <UniProt (TrEMBL) Secondary ID(s) of Target Chain>


> <UniProt (TrEMBL) Alternative ID(s) of Target Chain>


> <training label>
6.13668

> <i_lp_mmshare_version>
54117

> <s_epik_input>
W09IXVtDSDJdW0NASF0oTzEpW0NASF0oW09IXSlbQ0BASF0oW09IXSlbQ0BIXTFuMltjSF1uYyhjMjMpYyhuW2NIXW4zKVNbQ0gyXWMoW2NIXVtjSF00KVtjSF1bY0hdYzRJ

> <s_epik_cmdline>
J2VwaWtfcHl0aG9uJywgJy1waHQnLCAnMC4xJywgJy1waCcsICc3LjQnLCAnLXRuJywgJzgnLCAnLW1hJywgJzIwMCcsICctaW1hZScsICc8aW5maWxlLm1hZT4nLCAnLW9tYWUnLCAnPG91dGZpbGUubWFlPic=

> <r_lp_tautomer_probability>
1

> <r_epik_Ionization_Penalty>
  0.0001

> <r_epik_Ionization_Penalty_Charging>
  0.0000

> <r_epik_Ionization_Penalty_Neutral>
  0.0001

> <r_epik_State_Penalty>
  0.0000

> <r_epik_Charging_Adjusted_Penalty>
0

> <i_epik_Tot_Q>
0

> <i_epik_Tot_abs_Q>
0

> <i_f3d_flags>
0

> <s_lp_Force_Field>
OPLS_2005

> <r_lp_Energy>
37.609298

> <b_lp_Chiralities_Consistent>
1

> <s_lp_Variant>
BindingDB_50144606_mol_1-7

> <s_i_glide_gridfile>
struct_1_site_1

> <i_i_glide_lignum>
86

> <i_i_glide_rotatable_bonds>
8

> <r_i_docking_score>
-5.70623024098717

> <r_i_glide_ligand_efficiency>
-0.211341860777303

> <r_i_glide_ligand_efficiency_sa>
-0.63402558163536

> <r_i_glide_ligand_efficiency_ln>
-1.32831632554396

> <r_i_glide_gscore>
-5.70623024098717

> <r_i_glide_lipo>
-1.87205380878628

> <r_i_glide_hbond>
-0.0168514281861439

> <r_i_glide_metal>
0

> <r_i_glide_rewards>
-2.18860120044611

> <r_i_glide_evdw>
-36.2318649291992

> <r_i_glide_ecoul>
-1.49998354911804

> <r_i_glide_erotb>
0.407866975259027

> <r_i_glide_esite>
0

> <r_i_glide_emodel>
-26.8394985029214

> <r_i_glide_energy>
-37.7318484783173

> <r_i_glide_einternal>
3.95589661598206

> <i_i_glide_confnum>
15

> <i_i_glide_posenum>
390

> <r_i_glide_eff_state_penalty>
0

> <PMID>
26826581

> <s_epik_Chemistry_Notes>
This compound contains an acetal/aminal-like group ( X-CH(R)-Y where X, Y are N, S, or O) that may be acid/base labile, releasing an aldehyde.

> <r_glide_shape_similarity>
0.741613984107971

> <s_m_subgroup_title>
505 training

> <s_m_subgroupid>
pocket_pv

> <b_m_subgroup_collapsed>
0

$$$$
/home/bortolaa/Project/GT/mario-master/ligands/set505ligs_train.sdf:24
                    3D
 Schrodinger Suite 2021-2.
 65 67  0  0  1  0            999 V2000
   22.2229    0.0781   53.5006 C   0  0  0  0  0  0
   20.9120    0.0145   52.9979 C   0  0  0  0  0  0
   20.0511   -0.9101   53.6291 C   0  0  0  0  0  0
   20.5336   -1.7540   54.5754 N   0  0  0  0  0  0
   21.8268   -1.6611   54.9029 C   0  0  0  0  0  0
   22.6961   -0.7772   54.4334 N   0  0  0  0  0  0
   18.6994   -0.9153   53.2228 C   0  0  0  0  0  0
   18.2328   -0.0683   52.1760 C   0  0  0  0  0  0
   19.1413    0.7688   51.4763 C   0  0  0  0  0  0
   20.4779    0.8251   51.9214 C   0  0  0  0  0  0
   18.6677    1.5161   50.4065 O   0  0  0  0  0  0
   19.6041    2.1705   49.5470 C   0  0  0  0  0  0
   16.9108   -0.0123   51.7936 O   0  0  0  0  0  0
   15.9440   -0.4118   52.7509 C   0  0  0  0  0  0
   14.6057    0.2040   52.3332 C   0  0  0  0  0  0
   13.5365    0.0078   53.3551 N   0  3  0  0  0  0
   12.4508    1.0320   53.2082 C   0  0  0  0  0  0
   13.0190   -1.3976   53.3735 C   0  0  0  0  0  0
   12.8017    2.3728   53.8894 C   0  0  0  0  0  0
   12.1844   -1.7401   54.6289 C   0  0  0  0  0  0
   23.0169    1.1460   53.0984 N   0  0  0  0  0  0
   24.3958    1.2229   53.1060 C   0  0  0  0  0  0
   25.1601    0.0796   52.8143 C   0  0  0  0  0  0
   26.5457    0.1964   52.7517 C   0  0  0  0  0  0
   27.1632    1.4299   53.0990 C   0  0  0  0  0  0
   26.4039    2.5751   53.3741 C   0  0  0  0  0  0
   25.0045    2.4754   53.3477 C   0  0  0  0  0  0
   28.5405    1.4623   53.3230 N   0  0  0  0  0  0
   28.9953    0.3950   54.0481 C   0  0  0  0  0  0
   29.9620   -0.1831   53.3741 O   0  0  0  0  0  0
   28.4308   -0.0637   55.0379 O   0  0  0  0  0  0
   30.2615   -1.5371   53.6175 C   0  0  0  0  0  0
   29.1553   -2.5457   53.2339 C   0  0  0  0  0  0
   22.1989   -2.3574   55.6397 H   0  0  0  0  0  0
   18.0388   -1.6012   53.7297 H   0  0  0  0  0  0
   21.1757    1.4841   51.4291 H   0  0  0  0  0  0
   19.0742    2.5873   48.6892 H   0  0  0  0  0  0
   20.1065    2.9921   50.0591 H   0  0  0  0  0  0
   20.3509    1.4723   49.1648 H   0  0  0  0  0  0
   15.8963   -1.5002   52.7788 H   0  0  0  0  0  0
   16.2053   -0.0539   53.7486 H   0  0  0  0  0  0
   14.7711    1.2710   52.1862 H   0  0  0  0  0  0
   14.2839   -0.1875   51.3676 H   0  0  0  0  0  0
   12.2273    1.1880   52.1513 H   0  0  0  0  0  0
   11.5200    0.6824   53.6516 H   0  0  0  0  0  0
   12.4394   -1.5918   52.4695 H   0  0  0  0  0  0
   13.8553   -2.0948   53.3540 H   0  0  0  0  0  0
   12.0017    3.1008   53.7436 H   0  0  0  0  0  0
   12.9293    2.2401   54.9630 H   0  0  0  0  0  0
   13.7168    2.8149   53.4953 H   0  0  0  0  0  0
   12.0132   -2.8140   54.6886 H   0  0  0  0  0  0
   12.6878   -1.4417   55.5460 H   0  0  0  0  0  0
   11.2036   -1.2679   54.6158 H   0  0  0  0  0  0
   22.5301    1.9646   52.7593 H   0  0  0  0  0  0
   24.6934   -0.8722   52.6066 H   0  0  0  0  0  0
   27.1223   -0.6871   52.5187 H   0  0  0  0  0  0
   26.8788    3.5090   53.6382 H   0  0  0  0  0  0
   24.4089    3.3508   53.5603 H   0  0  0  0  0  0
   29.1472    1.8001   52.5906 H   0  0  0  0  0  0
   30.6342   -1.6666   54.6300 H   0  0  0  0  0  0
   31.0889   -1.6665   52.9562 H   0  0  0  0  0  0
   29.4794   -3.5648   53.4467 H   0  0  0  0  0  0
   28.9129   -2.4970   52.1759 H   0  0  0  0  0  0
   28.2272   -2.3824   53.7740 H   0  0  0  0  0  0
   13.9706    0.1602   54.2602 H   0  0  0  0  0  0
  1  2  2  0  0  0
  1  6  1  0  0  0
  1 21  1  0  0  0
  2 10  1  0  0  0
  2  3  1  0  0  0
  3  4  2  0  0  0
  3  7  1  0  0  0
  4  5  1  0  0  0
  5  6  2  0  0  0
  5 34  1  0  0  0
  7  8  2  0  0  0
  7 35  1  0  0  0
  8  9  1  0  0  0
  8 13  1  0  0  0
  9 10  2  0  0  0
  9 11  1  0  0  0
 10 36  1  0  0  0
 11 12  1  0  0  0
 12 37  1  0  0  0
 12 38  1  0  0  0
 12 39  1  0  0  0
 13 14  1  0  0  0
 14 15  1  0  0  0
 14 40  1  0  0  0
 14 41  1  0  0  0
 15 16  1  0  0  0
 15 42  1  0  0  0
 15 43  1  0  0  0
 16 17  1  0  0  0
 16 18  1  0  0  0
 16 65  1  0  0  0
 17 19  1  0  0  0
 17 44  1  0  0  0
 17 45  1  0  0  0
 18 20  1  0  0  0
 18 46  1  0  0  0
 18 47  1  0  0  0
 19 48  1  0  0  0
 19 49  1  0  0  0
 19 50  1  0  0  0
 20 51  1  0  0  0
 20 52  1  0  0  0
 20 53  1  0  0  0
 21 22  1  0  0  0
 21 54  1  0  0  0
 22 23  2  0  0  0
 22 27  1  0  0  0
 23 24  1  0  0  0
 23 55  1  0  0  0
 24 25  2  0  0  0
 24 56  1  0  0  0
 25 26  1  0  0  0
 25 28  1  0  0  0
 26 27  2  0  0  0
 26 57  1  0  0  0
 27 58  1  0  0  0
 28 29  1  0  0  0
 28 59  1  0  0  0
 29 30  1  0  0  0
 29 31  2  0  0  0
 30 32  1  0  0  0
 32 33  1  0  0  0
 32 60  1  0  0  0
 32 61  1  0  0  0
 33 62  1  0  0  0
 33 63  1  0  0  0
 33 64  1  0  0  0
M  CHG  1  16   1
M  END
> <s_m_entry_id>
462

> <s_m_entry_name>
pocket_pv.273

> <s_m_Source_Path>
/home/bortolaa/Project/GT/mario-master/docking/set505protein_struct_1_site_1_set505ligs_train

> <s_m_Source_File>
pocket_pv.maegz

> <i_m_Source_File_Index>
273

> <From>
www.bindingDB.org

> <BindingDB Reactant_set_id>
406581

> <Ligand InChI>
InChI=1S/C24H31N5O4/c1-5-29(6-2)12-13-33-22-15-20-19(14-21(22)31-4)23(26-16-25-20)27-17-8-10-18(11-9-17)28-24(30)32-7-3/h8-11,14-16H,5-7,12-13H2,1-4H3,(H,28,30)(H,25,26,27)

> <Ligand InChI Key>
SHLYCRFAVDOEGH-UHFFFAOYSA-N

> <BindingDB MonomerID>
233098

> <BindingDB Ligand Name>
Ethyl {4-[7-(2-diethylaminoethoxy)-6-methoxy-quinazolin-4-ylamino]phenyl}carbamate hydrochloride (7c)

> <Target Name Assigned by Curator or DataSource>
Epidermal growth factor receptor

> <Target Source Organism According to Curator or DataSource>
Homo sapiens

> <Ki (nM)>


> <IC50 (nM)>
9400

> <Kd (nM)>


> <EC50 (nM)>


> <kon (M-1-s-1)>


> <koff (s-1)>


> <Temp C>


> <Curation/DataSource>
Curated from the literature by BindingDB

> <Article DOI>
10.3109/14756360903169485

> <PubChem AID>


> <Patent Number>


> <Authors>
Garofalo, A; Goossens, L; Lemoine, A; Farce, A; Arlot, Y; Depreux, P

> <Institution>
Université Lille Nord de France

> <Link to Ligand in BindingDB>
http://www.bindingdb.org/bind/chemsearch/marvin/MolStructure.jsp?monomerid=233098

> <Link to Ligand-Target Pair in BindingDB>
http://www.bindingdb.org/jsp/dbsearch/PrimarySearch_ki.jsp?energyterm=kJ/mole&tag=r21&monomerid=233098&enzyme=Epidermal+growth+factor+receptor&column=ki&startPg=0&Increment=50&submit=Search

> <Ligand HET ID in PDB>


> <PDB ID(s) for Ligand-Target Complex>


> <PubChem CID>
129010597

> <PubChem SID>
340093192

> <ChEBI ID of Ligand>


> <ChEMBL ID of Ligand>


> <DrugBank ID of Ligand>


> <IUPHAR_GRAC ID of Ligand>


> <KEGG ID of Ligand>


> <ZINC ID of Ligand>


> <Number of Protein Chains in Target (>
1

> <BindingDB Target Chain Sequence>
MRPSGTAGAALLALLAALCPASRALEEKKVCQGTSNKLTQLGTFEDHFLSLQRMFNNCEVVLGNLEITYVQRNYDLSFLKTIQEVAGYVLIALNTVERIPLENLQIIRGNMYYENSYALAVLSNYDANKTGLKELPMRNLQEILHGAVRFSNNPALCNVESIQWRDIVSSDFLSNMSMDFQNHLGSCQKCDPSCPNGSCWGAGEENCQKLTKIICAQQCSGRCRGKSPSDCCHNQCAAGCTGPRESDCLVCRKFRDEATCKDTCPPLMLYNPTTYQMDVNPEGKYSFGATCVKKCPRNYVVTDHGSCVRACGADSYEMEEDGVRKCKKCEGPCRKVCNGIGIGEFKDSLSINATNIKHFKNCTSISGDLHILPVAFRGDSFTHTPPLDPQELDILKTVKEITGFLLIQAWPENRTDLHAFENLEIIRGRTKQHGQFSLAVVSLNITSLGLRSLKEISDGDVIISGNKNLCYANTINWKKLFGTSGQKTKIISNRGENSCKATGQVCHALCSPEGCWGPEPRDCVSCRNVSRGRECVDKCNLLEGEPREFVENSECIQCHPECLPQAMNITCTGRGPDNCIQCAHYIDGPHCVKTCPAGVMGENNTLVWKYADAGHVCHLCHPNCTYGCTGPGLEGCPTNGPKIPSIATGMVGALLLLLVVALGIGLFMRRRHIVRKRTLRRLLQERELVEPLTPSGEAPNQALLRILKETEFKKIKVLGSGAFGTVYKGLWIPEGEKVKIPVAIKELREATSPKANKEILDEAYVMASVDNPHVCRLLGICLTSTVQLITQLMPFGCLLDYVREHKDNIGSQYLLNWCVQIAKGMNYLEDRRLVHRDLAARNVLVKTPQHVKITDFGLAKLLGAEEKEYHAEGGKVPIKWMALESILHRIYTHQSDVWSYGVTVWELMTFGSKPYDGIPASEISSILEKGERLPQPPICTIDVYMIMVKCWMIDADSRPKFRELIIEFSKMARDPQRYLVIQGDERMHLPSPTDSNFYRALMDEEDMDDVVDADEYLIPQQGFFSSPSTSRTPLLSSLSATSNNSTVACIDRNGLQSCPIKEDSFLQRYSSDPTGALTEDSIDDTFLPVPEYINQSVPKRPAGSVQNPVYHNQPLNPAPSRDPHYQDPHSTAVGNPEYLNTVQPTCVNSTFDSPAHWAQKGSHQISLDNPDYQQDFFPKEAKPNGIFKGSTAENAEYLRVAPQSSEFIGA

> <PDB ID(s) of Target Chain>
1IVO,1M14,1M17,1MOX,1XKK,1Z9I,2GS2,2GS6,2ITW,2ITX,2ITY,2J5E,2J5F,2J6M,2RF9,2RGP,3B2V,3BEL,3GOP,3POZ,3QWQ,3VJO,3W2O,3W2P,3W2Q,3W2R,3W2S,3W32,3W33,4G5J,4I23,4JQ7,4JQ8,4JR3,4JRV,4KRO,4LI5,4RJ4,4RJ5,4RJ6,4RJ7,4RJ8,4TKS,4UIP,4UV7,4WKQ,4WRG,4ZAU,5C8K,5C8M,5C8N,5CAL,5CAN,5CAO,5CAP,5CAQ,5CAS,5CAU,5CAV,5EDP,5EDQ,5EDR,5EM5,5EM6,5EM7,5EM8,5FED,5GNK,5HCX,5HCY,5HCZ,5HIB,5HIC,5UGB,5WB7,5WB8,5Y25,6S89,6S8A

> <UniProt (SwissProt) Recommended Name of Target Chain>
Epidermal growth factor receptor

> <UniProt (SwissProt) Entry Name of Target Chain>
EGFR_HUMAN

> <UniProt (SwissProt) Primary ID of Target Chain>
P00533

> <UniProt (SwissProt) Secondary ID(s) of Target Chain>
O00688,O00732,P06268,Q14225,Q68GS5,Q92795,Q9BZS2,Q9GZX1,Q9H2C9,Q9H3C9,Q9UMD7,Q9UMD8,Q9UMG5

> <UniProt (SwissProt) Alternative ID(s) of Target Chain>


> <UniProt (TrEMBL) Submitted Name of Target Chain>


> <UniProt (TrEMBL) Entry Name of Target Chain>


> <UniProt (TrEMBL) Primary ID of Target Chain>


> <UniProt (TrEMBL) Secondary ID(s) of Target Chain>


> <UniProt (TrEMBL) Alternative ID(s) of Target Chain>


> <training label>
5.02687

> <i_lp_mmshare_version>
54117

> <s_epik_input>
W0NIM11bQ0gyXU9DKD1PKVtOSF1jKFtjSF1bY0hdMSlbY0hdW2NIXWMxW05IXWMybltjSF1uYyhjMjMpW2NIXWMoYyhbY0hdMylPW0NIM10pT1tDSDJdW0NIMl1OKFtDSDJdW0NIM10pW0NIMl1bQ0gzXQ==

> <s_epik_cmdline>
J2VwaWtfcHl0aG9uJywgJy1waHQnLCAnMC4xJywgJy1waCcsICc3LjQnLCAnLXRuJywgJzgnLCAnLW1hJywgJzIwMCcsICctaW1hZScsICc8aW5maWxlLm1hZT4nLCAnLW9tYWUnLCAnPG91dGZpbGUubWFlPic=

> <r_lp_tautomer_probability>
0.999978000241998

> <r_epik_Ionization_Penalty>
  0.0610

> <r_epik_Ionization_Penalty_Charging>
  0.0604

> <r_epik_Ionization_Penalty_Neutral>
  0.0006

> <r_epik_State_Penalty>
  0.0524

> <r_epik_Charging_Adjusted_Penalty>
0.112841773912698

> <i_epik_Tot_Q>
1

> <i_epik_Tot_abs_Q>
1

> <i_f3d_flags>
0

> <s_lp_Force_Field>
OPLS_2005

> <r_lp_Energy>
36.410827

> <b_lp_Chiralities_Consistent>
1

> <s_lp_Variant>
/home/bortolaa/Project/GT/mario-master/ligands/set505ligs_train.sdf:24-1

> <s_i_glide_gridfile>
struct_1_site_1

> <i_i_glide_lignum>
24

> <i_i_glide_rotatable_bonds>
13

> <r_i_docking_score>
-5.63364316277377

> <r_i_glide_ligand_efficiency>
-0.170716459477993

> <r_i_glide_ligand_efficiency_sa>
-0.5475789038328

> <r_i_glide_ligand_efficiency_ln>
-1.25289306995771

> <r_i_glide_gscore>
-5.68604316277377

> <r_i_glide_lipo>
-2.83710266612656

> <r_i_glide_hbond>
0

> <r_i_glide_metal>
0

> <r_i_glide_rewards>
-0.901360101510176

> <r_i_glide_evdw>
-46.3577041625977

> <r_i_glide_ecoul>
-3.36318564414978

> <r_i_glide_erotb>
0.874782659615319

> <r_i_glide_esite>
0

> <r_i_glide_emodel>
-38.5559034094752

> <r_i_glide_energy>
-49.7208898067474

> <r_i_glide_einternal>
11.9334192276001

> <i_i_glide_confnum>
393

> <i_i_glide_posenum>
22

> <r_i_glide_eff_state_penalty>
0.0524

> <PMID>
20222760

> <s_epik_Chemistry_Notes>
This compound has an ester and may undergo hydrolysis at high or low pH.

> <r_glide_shape_similarity>
0.733289659023285

> <pH>
7.5

> <s_m_subgroup_title>
505 training

> <s_m_subgroupid>
pocket_pv

> <b_m_subgroup_collapsed>
0

$$$$
/home/bortolaa/Project/GT/mario-master/ligands/set505ligs_train.sdf:79
                    3D
 Schrodinger Suite 2021-2.
 72 76  0  0  1  0            999 V2000
   24.8327    0.9393   53.2406 C   0  0  0  0  0  0
   26.2830    0.5835   53.3470 C   0  0  0  0  0  0
   26.6798   -0.7730   53.2773 C   0  0  0  0  0  0
   28.0357   -1.1265   53.3600 C   0  0  0  0  0  0
   29.0011   -0.1205   53.5032 C   0  0  0  0  0  0
   28.6184    1.2404   53.5432 C   0  0  0  0  0  0
   27.2564    1.5963   53.4662 C   0  0  0  0  0  0
   24.4818    2.0196   52.7688 O   0  0  0  0  0  0
   23.9992    0.0291   53.7772 N   0  0  0  0  0  0
   30.4514   -0.5229   53.5903 C   0  0  0  0  0  0
   22.6095   -0.1075   53.5949 C   0  0  0  0  0  0
   21.9055    0.5579   52.5569 C   0  0  0  0  0  0
   20.5345    0.3362   52.3755 C   0  0  0  0  0  0
   19.8466   -0.5428   53.2431 C   0  0  0  0  0  0
   20.5576   -1.2139   54.2594 C   0  0  0  0  0  0
   21.9347   -1.0038   54.4428 C   0  0  0  0  0  0
   18.4849   -0.8442   53.1179 N   0  0  0  0  0  0
   15.5447    0.9532   50.8028 N   0  0  0  0  0  0
   16.7140    1.5221   51.0942 C   0  0  0  0  0  0
   17.6881    0.9868   51.8274 N   0  0  0  0  0  0
   17.4784   -0.2404   52.3499 C   0  0  0  0  0  0
   16.2651   -0.9235   52.1277 C   0  0  0  0  0  0
   16.0031   -2.2177   52.6381 C   0  0  0  0  0  0
   14.7983   -2.8998   52.3243 C   0  0  0  0  0  0
   13.8453   -2.2596   51.4934 C   0  0  0  0  0  0
   14.1333   -0.9687   50.9690 C   0  0  0  0  0  0
   15.3141   -0.2790   51.3001 C   0  0  0  0  0  0
   12.6475   -2.9246   51.2664 O   0  0  0  0  0  0
   11.4494   -2.1648   51.0390 C   0  0  0  0  0  0
   10.8991   -1.4770   52.3156 C   0  0  0  0  0  0
   11.8355   -0.3943   52.8905 C   0  0  0  0  0  0
   11.2676    1.9340   56.3338 O   0  0  0  0  0  0
   10.2325    0.9870   56.0522 C   0  0  0  0  0  0
   10.7869   -0.0725   55.0746 C   0  0  0  0  0  0
   11.2691    0.5478   53.8404 N   0  0  0  0  0  0
   12.2666    1.5835   54.1524 C   0  0  0  0  0  0
   11.7263    2.6165   55.1594 C   0  0  0  0  0  0
   14.4968   -4.1705   52.7847 O   0  0  0  0  0  0
   15.3789   -4.7755   53.7295 C   0  0  0  0  0  0
   25.9554   -1.5640   53.1516 H   0  0  0  0  0  0
   28.3258   -2.1672   53.3151 H   0  0  0  0  0  0
   29.3654    2.0172   53.6374 H   0  0  0  0  0  0
   26.9720    2.6405   53.5001 H   0  0  0  0  0  0
   24.4382   -0.7071   54.3115 H   0  0  0  0  0  0
   31.0921    0.3572   53.5654 H   0  0  0  0  0  0
   30.6471   -1.0731   54.5068 H   0  0  0  0  0  0
   30.6879   -1.1586   52.7390 H   0  0  0  0  0  0
   22.4039    1.2142   51.8643 H   0  0  0  0  0  0
   20.0665    0.8210   51.5405 H   0  0  0  0  0  0
   20.0492   -1.9071   54.9134 H   0  0  0  0  0  0
   22.4675   -1.5307   55.2207 H   0  0  0  0  0  0
   18.1855   -1.6293   53.6725 H   0  0  0  0  0  0
   16.8946    2.5078   50.6897 H   0  0  0  0  0  0
   16.7404   -2.6980   53.2567 H   0  0  0  0  0  0
   13.4380   -0.4685   50.3178 H   0  0  0  0  0  0
   10.6989   -2.8738   50.6985 H   0  0  0  0  0  0
   11.5584   -1.4583   50.2176 H   0  0  0  0  0  0
   10.6819   -2.2296   53.0752 H   0  0  0  0  0  0
    9.9422   -1.0123   52.0683 H   0  0  0  0  0  0
   12.1949    0.1899   52.0463 H   0  0  0  0  0  0
   12.7041   -0.8695   53.3483 H   0  0  0  0  0  0
    9.3702    1.4961   55.6155 H   0  0  0  0  0  0
    9.8892    0.5208   56.9744 H   0  0  0  0  0  0
   11.5984   -0.6210   55.5562 H   0  0  0  0  0  0
   10.0070   -0.7976   54.8458 H   0  0  0  0  0  0
   12.5771    2.0985   53.2408 H   0  0  0  0  0  0
   13.1649    1.1187   54.5697 H   0  0  0  0  0  0
   10.9147    3.1847   54.7020 H   0  0  0  0  0  0
   12.5127    3.3265   55.4107 H   0  0  0  0  0  0
   14.9692   -5.7355   54.0483 H   0  0  0  0  0  0
   16.3601   -4.9621   53.2887 H   0  0  0  0  0  0
   15.4984   -4.1547   54.6203 H   0  0  0  0  0  0
  1  2  1  0  0  0
  1  8  2  0  0  0
  1  9  1  0  0  0
  2  3  1  0  0  0
  2  7  2  0  0  0
  3  4  2  0  0  0
  3 40  1  0  0  0
  4  5  1  0  0  0
  4 41  1  0  0  0
  5  6  2  0  0  0
  5 10  1  0  0  0
  6  7  1  0  0  0
  6 42  1  0  0  0
  7 43  1  0  0  0
  9 11  1  0  0  0
  9 44  1  0  0  0
 10 45  1  0  0  0
 10 46  1  0  0  0
 10 47  1  0  0  0
 11 12  1  0  0  0
 11 16  2  0  0  0
 12 13  2  0  0  0
 12 48  1  0  0  0
 13 14  1  0  0  0
 13 49  1  0  0  0
 14 15  2  0  0  0
 14 17  1  0  0  0
 15 16  1  0  0  0
 15 50  1  0  0  0
 16 51  1  0  0  0
 17 21  1  0  0  0
 17 52  1  0  0  0
 18 19  1  0  0  0
 18 27  2  0  0  0
 19 20  2  0  0  0
 19 53  1  0  0  0
 20 21  1  0  0  0
 21 22  2  0  0  0
 22 23  1  0  0  0
 22 27  1  0  0  0
 23 24  2  0  0  0
 23 54  1  0  0  0
 24 25  1  0  0  0
 24 38  1  0  0  0
 25 26  2  0  0  0
 25 28  1  0  0  0
 26 27  1  0  0  0
 26 55  1  0  0  0
 28 29  1  0  0  0
 29 30  1  0  0  0
 29 56  1  0  0  0
 29 57  1  0  0  0
 30 31  1  0  0  0
 30 58  1  0  0  0
 30 59  1  0  0  0
 31 35  1  0  0  0
 31 60  1  0  0  0
 31 61  1  0  0  0
 32 33  1  0  0  0
 32 37  1  0  0  0
 33 34  1  0  0  0
 33 62  1  0  0  0
 33 63  1  0  0  0
 34 35  1  0  0  0
 34 64  1  0  0  0
 34 65  1  0  0  0
 35 36  1  0  0  0
 36 37  1  0  0  0
 36 66  1  0  0  0
 36 67  1  0  0  0
 37 68  1  0  0  0
 37 69  1  0  0  0
 38 39  1  0  0  0
 39 70  1  0  0  0
 39 71  1  0  0  0
 39 72  1  0  0  0
M  END
> <s_m_entry_id>
463

> <s_m_entry_name>
pocket_pv.274

> <s_m_Source_Path>
/home/bortolaa/Project/GT/mario-master/docking/set505protein_struct_1_site_1_set505ligs_train

> <s_m_Source_File>
pocket_pv.maegz

> <i_m_Source_File_Index>
274

> <From>
www.bindingDB.org

> <BindingDB Reactant_set_id>
50463833

> <Ligand InChI>
InChI=1S/C30H33N5O4/c1-21-4-6-22(7-5-21)30(36)34-24-10-8-23(9-11-24)33-29-25-18-27(37-2)28(19-26(25)31-20-32-29)39-15-3-12-35-13-16-38-17-14-35/h4-11,18-20H,3,12-17H2,1-2H3,(H,34,36)(H,31,32,33)

> <Ligand InChI Key>
MZRBFVUGGURYMM-UHFFFAOYSA-N

> <BindingDB MonomerID>
50144593

> <BindingDB Ligand Name>
CHEMBL3758875

> <Target Name Assigned by Curator or DataSource>
Epidermal growth factor receptor

> <Target Source Organism According to Curator or DataSource>
Homo sapiens

> <Ki (nM)>


> <IC50 (nM)>
760

> <Kd (nM)>


> <EC50 (nM)>


> <kon (M-1-s-1)>


> <koff (s-1)>


> <pH>


> <Temp C>


> <Curation/DataSource>
ChEMBL

> <Article DOI>
10.1016/j.ejmech.2015.12.032

> <PubChem AID>


> <Patent Number>


> <Authors>
Zhang, HQ; Gong, FH; Li, CG; Zhang, C; Wang, YJ; Xu, YG; Sun, LP

> <Institution>
China Pharmaceutical University

> <Link to Ligand in BindingDB>
http://www.bindingdb.org/bind/chemsearch/marvin/MolStructure.jsp?monomerid=50144593

> <Link to Ligand-Target Pair in BindingDB>
http://www.bindingdb.org/jsp/dbsearch/PrimarySearch_ki.jsp?energyterm=kJ/mole&tag=r21&monomerid=50144593&enzyme=Epidermal+growth+factor+receptor&column=ki&startPg=0&Increment=50&submit=Search

> <Ligand HET ID in PDB>


> <PDB ID(s) for Ligand-Target Complex>


> <PubChem CID>
3009558

> <PubChem SID>
85414069

> <ChEBI ID of Ligand>


> <ChEMBL ID of Ligand>
CHEMBL3758875

> <DrugBank ID of Ligand>


> <IUPHAR_GRAC ID of Ligand>


> <KEGG ID of Ligand>


> <ZINC ID of Ligand>


> <Number of Protein Chains in Target (>
1

> <BindingDB Target Chain Sequence>
MRPSGTAGAALLALLAALCPASRALEEKKVCQGTSNKLTQLGTFEDHFLSLQRMFNNCEVVLGNLEITYVQRNYDLSFLKTIQEVAGYVLIALNTVERIPLENLQIIRGNMYYENSYALAVLSNYDANKTGLKELPMRNLQEILHGAVRFSNNPALCNVESIQWRDIVSSDFLSNMSMDFQNHLGSCQKCDPSCPNGSCWGAGEENCQKLTKIICAQQCSGRCRGKSPSDCCHNQCAAGCTGPRESDCLVCRKFRDEATCKDTCPPLMLYNPTTYQMDVNPEGKYSFGATCVKKCPRNYVVTDHGSCVRACGADSYEMEEDGVRKCKKCEGPCRKVCNGIGIGEFKDSLSINATNIKHFKNCTSISGDLHILPVAFRGDSFTHTPPLDPQELDILKTVKEITGFLLIQAWPENRTDLHAFENLEIIRGRTKQHGQFSLAVVSLNITSLGLRSLKEISDGDVIISGNKNLCYANTINWKKLFGTSGQKTKIISNRGENSCKATGQVCHALCSPEGCWGPEPRDCVSCRNVSRGRECVDKCNLLEGEPREFVENSECIQCHPECLPQAMNITCTGRGPDNCIQCAHYIDGPHCVKTCPAGVMGENNTLVWKYADAGHVCHLCHPNCTYGCTGPGLEGCPTNGPKIPSIATGMVGALLLLLVVALGIGLFMRRRHIVRKRTLRRLLQERELVEPLTPSGEAPNQALLRILKETEFKKIKVLGSGAFGTVYKGLWIPEGEKVKIPVAIKELREATSPKANKEILDEAYVMASVDNPHVCRLLGICLTSTVQLITQLMPFGCLLDYVREHKDNIGSQYLLNWCVQIAKGMNYLEDRRLVHRDLAARNVLVKTPQHVKITDFGLAKLLGAEEKEYHAEGGKVPIKWMALESILHRIYTHQSDVWSYGVTVWELMTFGSKPYDGIPASEISSILEKGERLPQPPICTIDVYMIMVKCWMIDADSRPKFRELIIEFSKMARDPQRYLVIQGDERMHLPSPTDSNFYRALMDEEDMDDVVDADEYLIPQQGFFSSPSTSRTPLLSSLSATSNNSTVACIDRNGLQSCPIKEDSFLQRYSSDPTGALTEDSIDDTFLPVPEYINQSVPKRPAGSVQNPVYHNQPLNPAPSRDPHYQDPHSTAVGNPEYLNTVQPTCVNSTFDSPAHWAQKGSHQISLDNPDYQQDFFPKEAKPNGIFKGSTAENAEYLRVAPQSSEFIGA

> <PDB ID(s) of Target Chain>
1IVO,1M14,1M17,1MOX,1XKK,1Z9I,2GS2,2GS6,2ITW,2ITX,2ITY,2J5E,2J5F,2J6M,2RF9,2RGP,3B2V,3BEL,3GOP,3POZ,3QWQ,3VJO,3W2O,3W2P,3W2Q,3W2R,3W2S,3W32,3W33,4G5J,4I23,4JQ7,4JQ8,4JR3,4JRV,4KRO,4LI5,4RJ4,4RJ5,4RJ6,4RJ7,4RJ8,4TKS,4UIP,4UV7,4WKQ,4WRG,4ZAU,5C8K,5C8M,5C8N,5CAL,5CAN,5CAO,5CAP,5CAQ,5CAS,5CAU,5CAV,5EDP,5EDQ,5EDR,5EM5,5EM6,5EM7,5EM8,5FED,5GNK,5HCX,5HCY,5HCZ,5HIB,5HIC,5UGB,5WB7,5WB8,5Y25,6S89,6S8A

> <UniProt (SwissProt) Recommended Name of Target Chain>
Epidermal growth factor receptor

> <UniProt (SwissProt) Entry Name of Target Chain>
EGFR_HUMAN

> <UniProt (SwissProt) Primary ID of Target Chain>
P00533

> <UniProt (SwissProt) Secondary ID(s) of Target Chain>
O00688,O00732,P06268,Q14225,Q68GS5,Q92795,Q9BZS2,Q9GZX1,Q9H2C9,Q9H3C9,Q9UMD7,Q9UMD8,Q9UMG5

> <UniProt (SwissProt) Alternative ID(s) of Target Chain>


> <UniProt (TrEMBL) Submitted Name of Target Chain>


> <UniProt (TrEMBL) Entry Name of Target Chain>


> <UniProt (TrEMBL) Primary ID of Target Chain>


> <UniProt (TrEMBL) Secondary ID(s) of Target Chain>


> <UniProt (TrEMBL) Alternative ID(s) of Target Chain>


> <training label>
6.11919

> <i_lp_mmshare_version>
54117

> <s_epik_input>
W2NIXTFbY0hdYyhbQ0gzXSlbY0hdW2NIXWMxQyg9TylbTkhdYzJbY0hdW2NIXWMoW2NIXVtjSF0yKVtOSF1jM25bY0hdbmMoYzM0KVtjSF1jKGMoW2NIXTQpT1tDSDNdKU9bQ0gyXVtDSDJdW0NIMl1ONVtDSDJdW0NIMl1PW0NIMl1bQ0gyXTU=

> <s_epik_cmdline>
J2VwaWtfcHl0aG9uJywgJy1waHQnLCAnMC4xJywgJy1waCcsICc3LjQnLCAnLXRuJywgJzgnLCAnLW1hJywgJzIwMCcsICctaW1hZScsICc8aW5maWxlLm1hZT4nLCAnLW9tYWUnLCAnPG91dGZpbGUubWFlPic=

> <r_lp_tautomer_probability>
0.999978000241998

> <r_epik_Ionization_Penalty>
  0.1970

> <r_epik_Ionization_Penalty_Charging>
  0.0000

> <r_epik_Ionization_Penalty_Neutral>
  0.1970

> <r_epik_State_Penalty>
  0.1860

> <r_epik_Charging_Adjusted_Penalty>
0.186024314191534

> <i_epik_Tot_Q>
0

> <i_epik_Tot_abs_Q>
0

> <i_f3d_flags>
0

> <s_lp_Force_Field>
OPLS_2005

> <r_lp_Energy>
57.96856

> <b_lp_Chiralities_Consistent>
1

> <s_lp_Variant>
/home/bortolaa/Project/GT/mario-master/ligands/set505ligs_train.sdf:79-1

> <s_i_glide_gridfile>
struct_1_site_1

> <i_i_glide_lignum>
79

> <i_i_glide_rotatable_bonds>
11

> <r_i_docking_score>
-5.53536359440069

> <r_i_glide_ligand_efficiency>
-0.141932399856428

> <r_i_glide_ligand_efficiency_sa>
-0.481322777939795

> <r_i_glide_ligand_efficiency_ln>
-1.18693908527929

> <r_i_glide_gscore>
-5.72136359440069

> <r_i_glide_lipo>
-3.36158910656389

> <r_i_glide_hbond>
0

> <r_i_glide_metal>
0

> <r_i_glide_rewards>
-0.231190765620681

> <r_i_glide_evdw>
-50.2071647644043

> <r_i_glide_ecoul>
-1.89407241344452

> <r_i_glide_erotb>
0.665885378020772

> <r_i_glide_esite>
0

> <r_i_glide_emodel>
-19.7334173498829

> <r_i_glide_energy>
-52.1012371778488

> <r_i_glide_einternal>
4.89671516418457

> <i_i_glide_confnum>
162

> <i_i_glide_posenum>
58

> <r_i_glide_eff_state_penalty>
0.186

> <PMID>
26826581

> <r_glide_shape_similarity>
0.515880763530731

> <s_m_subgroup_title>
505 training

> <s_m_subgroupid>
pocket_pv

> <b_m_subgroup_collapsed>
0

$$$$
BindingDB_50171249_mol_1
                    3D
 Schrodinger Suite 2021-2.
 52 55  0  0  1  0            999 V2000
   20.2667    0.0925   52.5661 C   0  0  0  0  0  0
   21.6160    0.0305   53.0057 C   0  0  0  0  0  0
   19.3507   -0.7649   53.2299 C   0  0  0  0  0  0
   19.8319    0.9486   51.5187 C   0  0  0  0  0  0
   22.0143   -0.8149   53.9824 N   0  0  0  0  0  0
   17.9830   -0.6935   52.8793 C   0  0  0  0  0  0
   22.5526    0.8470   52.3622 N   0  0  0  0  0  0
   18.4624    0.9825   51.1359 C   0  0  0  0  0  0
   17.5177    0.1888   51.8589 C   0  0  0  0  0  0
   19.7931   -1.6312   54.1734 N   0  0  0  0  0  0
   21.0863   -1.6053   54.5101 C   0  0  0  0  0  0
   25.8603    2.4552   52.0115 C   0  0  0  0  0  0
   26.5761    1.9636   53.1296 C   0  0  0  0  0  0
   23.8805    1.1708   52.6743 C   0  0  0  0  0  0
   24.5104    2.0896   51.8115 C   0  0  0  0  0  0
   27.9437    2.1534   53.1562 O   0  0  0  0  0  0
   27.4751   -0.7437   52.8282 N   0  0  0  0  0  0
   25.8910    1.1498   54.0651 C   0  0  0  0  0  0
   28.6292   -0.2961   53.3779 C   0  0  0  0  0  0
   28.7526    1.1775   53.8279 C   0  0  0  0  0  0
   24.6042    0.6720   53.7760 C   0  0  0  0  0  0
   18.0135    1.7847   50.0865 O   0  0  0  0  0  0
   16.1755    0.3156   51.5351 O   0  0  0  0  0  0
   26.5325    3.3382   50.9683 C   0  0  0  0  0  0
   27.2724   -2.0633   52.6325 C   0  0  0  0  0  0
   29.6883   -1.1833   53.6519 C   0  0  0  0  0  0
   15.2061   -0.2434   52.4255 C   0  0  0  0  0  0
   18.9667    2.3238   49.1660 C   0  0  0  0  0  0
   28.2772   -3.0147   52.8891 C   0  0  0  0  0  0
   29.5004   -2.5525   53.3751 C   0  0  0  0  0  0
   20.5457    1.5921   51.0160 H   0  0  0  0  0  0
   17.3082   -1.3415   53.4211 H   0  0  0  0  0  0
   22.1690    1.3724   51.5887 H   0  0  0  0  0  0
   21.4048   -2.2858   55.2868 H   0  0  0  0  0  0
   23.9753    2.4928   50.9668 H   0  0  0  0  0  0
   26.3987    0.7541   54.9271 H   0  0  0  0  0  0
   28.5750    1.2388   54.9014 H   0  0  0  0  0  0
   29.7885    1.4892   53.6891 H   0  0  0  0  0  0
   24.1958   -0.0211   54.4866 H   0  0  0  0  0  0
   25.9205    3.4303   50.0719 H   0  0  0  0  0  0
   26.6887    4.3305   51.3747 H   0  0  0  0  0  0
   27.4910    2.9194   50.6786 H   0  0  0  0  0  0
   26.3118   -2.3553   52.2362 H   0  0  0  0  0  0
   30.6094   -0.8224   54.0896 H   0  0  0  0  0  0
   14.2074    0.0200   52.0763 H   0  0  0  0  0  0
   15.2708   -1.3300   52.4441 H   0  0  0  0  0  0
   15.3187    0.1555   53.4344 H   0  0  0  0  0  0
   18.4447    2.7802   48.3271 H   0  0  0  0  0  0
   19.5728    3.1001   49.6373 H   0  0  0  0  0  0
   19.6170    1.5504   48.7526 H   0  0  0  0  0  0
   28.1425   -4.0655   52.6776 H   0  0  0  0  0  0
   30.2843   -3.2591   53.5899 H   0  0  0  0  0  0
  1  2  1  0  0  0
  1  3  1  0  0  0
  1  4  2  0  0  0
  2  5  2  0  0  0
  2  7  1  0  0  0
  3  6  2  0  0  0
  3 10  1  0  0  0
  4  8  1  0  0  0
  4 31  1  0  0  0
  5 11  1  0  0  0
  6  9  1  0  0  0
  6 32  1  0  0  0
  7 14  1  0  0  0
  7 33  1  0  0  0
  8  9  2  0  0  0
  8 22  1  0  0  0
  9 23  1  0  0  0
 10 11  2  0  0  0
 11 34  1  0  0  0
 12 13  2  0  0  0
 12 15  1  0  0  0
 12 24  1  0  0  0
 13 16  1  0  0  0
 13 18  1  0  0  0
 14 15  2  0  0  0
 14 21  1  0  0  0
 15 35  1  0  0  0
 16 20  1  0  0  0
 17 19  2  0  0  0
 17 25  1  0  0  0
 18 21  2  0  0  0
 18 36  1  0  0  0
 19 20  1  0  0  0
 19 26  1  0  0  0
 20 37  1  0  0  0
 20 38  1  0  0  0
 21 39  1  0  0  0
 22 28  1  0  0  0
 23 27  1  0  0  0
 24 40  1  0  0  0
 24 41  1  0  0  0
 24 42  1  0  0  0
 25 29  2  0  0  0
 25 43  1  0  0  0
 26 30  2  0  0  0
 26 44  1  0  0  0
 27 45  1  0  0  0
 27 46  1  0  0  0
 27 47  1  0  0  0
 28 48  1  0  0  0
 28 49  1  0  0  0
 28 50  1  0  0  0
 29 30  1  0  0  0
 29 51  1  0  0  0
 30 52  1  0  0  0
M  END
> <s_m_entry_id>
464

> <s_m_entry_name>
pocket_pv.275

> <s_m_Source_Path>
/home/bortolaa/Project/GT/mario-master/docking/set505protein_struct_1_site_1_set505ligs_train

> <s_m_Source_File>
pocket_pv.maegz

> <i_m_Source_File_Index>
275

> <From>
www.bindingDB.org

> <BindingDB Reactant_set_id>
50315771

> <Ligand InChI>
InChI=1S/C23H22N4O3/c1-15-10-16(7-8-20(15)30-13-17-6-4-5-9-24-17)27-23-18-11-21(28-2)22(29-3)12-19(18)25-14-26-23/h4-12,14H,13H2,1-3H3,(H,25,26,27)

> <Ligand InChI Key>
NDHNEUUBLJKLCP-UHFFFAOYSA-N

> <BindingDB MonomerID>
50171249

> <BindingDB Ligand Name>
(6,7-Dimethoxy-quinazolin-4-yl)-[3-methyl-4-(pyridin-2-ylmethoxy)-phenyl]-amine::CHEMBL371888

> <Target Name Assigned by Curator or DataSource>
Epidermal growth factor receptor

> <Target Source Organism According to Curator or DataSource>
Homo sapiens

> <Ki (nM)>


> <Kd (nM)>


> <EC50 (nM)>


> <kon (M-1-s-1)>


> <koff (s-1)>


> <pH>


> <Temp C>


> <Curation/DataSource>
ChEMBL

> <Article DOI>
10.1016/j.bmcl.2005.06.068

> <PubChem AID>


> <Patent Number>


> <Authors>
Ballard, P; Bradbury, RH; Hennequin, LF; Hickinson, DM; Johnson, PD; Kettle, JG; Klinowska, T; Morgentin, R; Ogilvie, DJ; Olivier, A

> <Institution>
AstraZeneca

> <Link to Ligand in BindingDB>
http://www.bindingdb.org/bind/chemsearch/marvin/MolStructure.jsp?monomerid=50171249

> <Link to Ligand-Target Pair in BindingDB>
http://www.bindingdb.org/jsp/dbsearch/PrimarySearch_ki.jsp?energyterm=kJ/mole&tag=r21&monomerid=50171249&enzyme=Epidermal+growth+factor+receptor&column=ki&startPg=0&Increment=50&submit=Search

> <Ligand HET ID in PDB>


> <PDB ID(s) for Ligand-Target Complex>


> <PubChem CID>
18967573

> <PubChem SID>
104057502

> <ChEBI ID of Ligand>


> <ChEMBL ID of Ligand>
CHEMBL371888

> <DrugBank ID of Ligand>


> <IUPHAR_GRAC ID of Ligand>


> <KEGG ID of Ligand>


> <ZINC ID of Ligand>
ZINC01485631

> <Number of Protein Chains in Target (>
1

> <BindingDB Target Chain Sequence>
MRPSGTAGAALLALLAALCPASRALEEKKVCQGTSNKLTQLGTFEDHFLSLQRMFNNCEVVLGNLEITYVQRNYDLSFLKTIQEVAGYVLIALNTVERIPLENLQIIRGNMYYENSYALAVLSNYDANKTGLKELPMRNLQEILHGAVRFSNNPALCNVESIQWRDIVSSDFLSNMSMDFQNHLGSCQKCDPSCPNGSCWGAGEENCQKLTKIICAQQCSGRCRGKSPSDCCHNQCAAGCTGPRESDCLVCRKFRDEATCKDTCPPLMLYNPTTYQMDVNPEGKYSFGATCVKKCPRNYVVTDHGSCVRACGADSYEMEEDGVRKCKKCEGPCRKVCNGIGIGEFKDSLSINATNIKHFKNCTSISGDLHILPVAFRGDSFTHTPPLDPQELDILKTVKEITGFLLIQAWPENRTDLHAFENLEIIRGRTKQHGQFSLAVVSLNITSLGLRSLKEISDGDVIISGNKNLCYANTINWKKLFGTSGQKTKIISNRGENSCKATGQVCHALCSPEGCWGPEPRDCVSCRNVSRGRECVDKCNLLEGEPREFVENSECIQCHPECLPQAMNITCTGRGPDNCIQCAHYIDGPHCVKTCPAGVMGENNTLVWKYADAGHVCHLCHPNCTYGCTGPGLEGCPTNGPKIPSIATGMVGALLLLLVVALGIGLFMRRRHIVRKRTLRRLLQERELVEPLTPSGEAPNQALLRILKETEFKKIKVLGSGAFGTVYKGLWIPEGEKVKIPVAIKELREATSPKANKEILDEAYVMASVDNPHVCRLLGICLTSTVQLITQLMPFGCLLDYVREHKDNIGSQYLLNWCVQIAKGMNYLEDRRLVHRDLAARNVLVKTPQHVKITDFGLAKLLGAEEKEYHAEGGKVPIKWMALESILHRIYTHQSDVWSYGVTVWELMTFGSKPYDGIPASEISSILEKGERLPQPPICTIDVYMIMVKCWMIDADSRPKFRELIIEFSKMARDPQRYLVIQGDERMHLPSPTDSNFYRALMDEEDMDDVVDADEYLIPQQGFFSSPSTSRTPLLSSLSATSNNSTVACIDRNGLQSCPIKEDSFLQRYSSDPTGALTEDSIDDTFLPVPEYINQSVPKRPAGSVQNPVYHNQPLNPAPSRDPHYQDPHSTAVGNPEYLNTVQPTCVNSTFDSPAHWAQKGSHQISLDNPDYQQDFFPKEAKPNGIFKGSTAENAEYLRVAPQSSEFIGA

> <PDB ID(s) of Target Chain>
1IVO,1M14,1M17,1MOX,1XKK,1Z9I,2GS2,2GS6,2ITW,2ITX,2ITY,2J5E,2J5F,2J6M,2RF9,2RGP,3B2V,3BEL,3GOP,3POZ,3QWQ,3VJO,3W2O,3W2P,3W2Q,3W2R,3W2S,3W32,3W33,4G5J,4I23,4JQ7,4JQ8,4JR3,4JRV,4KRO,4LI5,4RJ4,4RJ5,4RJ6,4RJ7,4RJ8,4TKS,4UIP,4UV7,4WKQ,4WRG,4ZAU,5C8K,5C8M,5C8N,5CAL,5CAN,5CAO,5CAP,5CAQ,5CAS,5CAU,5CAV,5EDP,5EDQ,5EDR,5EM5,5EM6,5EM7,5EM8,5FED,5GNK,5HCX,5HCY,5HCZ,5HIB,5HIC,5UGB,5WB7,5WB8,5Y25,6S89,6S8A

> <UniProt (SwissProt) Recommended Name of Target Chain>
Epidermal growth factor receptor

> <UniProt (SwissProt) Entry Name of Target Chain>
EGFR_HUMAN

> <UniProt (SwissProt) Primary ID of Target Chain>
P00533

> <UniProt (SwissProt) Secondary ID(s) of Target Chain>
O00688,O00732,P06268,Q14225,Q68GS5,Q92795,Q9BZS2,Q9GZX1,Q9H2C9,Q9H3C9,Q9UMD7,Q9UMD8,Q9UMG5

> <UniProt (SwissProt) Alternative ID(s) of Target Chain>


> <UniProt (TrEMBL) Submitted Name of Target Chain>


> <UniProt (TrEMBL) Entry Name of Target Chain>


> <UniProt (TrEMBL) Primary ID of Target Chain>


> <UniProt (TrEMBL) Secondary ID(s) of Target Chain>


> <UniProt (TrEMBL) Alternative ID(s) of Target Chain>


> <training label>
7.22915

> <i_lp_mmshare_version>
54117

> <s_epik_input>
W0NIM11PYyhbY0hdMSljKE9bQ0gzXSlbY0hdYyhjMTIpbltjSF1uYzJbTkhdYyhbY0hdMylbY0hdW2NIXWMoYzNbQ0gzXSlPW0NIMl1jNG5bY0hdW2NIXVtjSF1bY0hdNA==

> <s_epik_cmdline>
J2VwaWtfcHl0aG9uJywgJy1waHQnLCAnMC4xJywgJy1waCcsICc3LjQnLCAnLXRuJywgJzgnLCAnLW1hJywgJzIwMCcsICctaW1hZScsICc8aW5maWxlLm1hZT4nLCAnLW9tYWUnLCAnPG91dGZpbGUubWFlPic=

> <r_lp_tautomer_probability>
1

> <r_epik_Ionization_Penalty>
  0.0018

> <r_epik_Ionization_Penalty_Charging>
  0.0000

> <r_epik_Ionization_Penalty_Neutral>
  0.0018

> <r_epik_State_Penalty>
  0.0000

> <r_epik_Charging_Adjusted_Penalty>
0

> <i_epik_Tot_Q>
0

> <i_epik_Tot_abs_Q>
0

> <i_f3d_flags>
0

> <s_lp_Force_Field>
OPLS_2005

> <r_lp_Energy>
30.072287

> <b_lp_Chiralities_Consistent>
1

> <s_lp_Variant>
BindingDB_50171249_mol_1-1

> <s_i_glide_gridfile>
struct_1_site_1

> <i_i_glide_lignum>
183

> <i_i_glide_rotatable_bonds>
7

> <r_i_docking_score>
-5.42194865784407

> <r_i_glide_ligand_efficiency>
-0.180731621928136

> <r_i_glide_ligand_efficiency_sa>
-0.561575169872191

> <r_i_glide_ligand_efficiency_ln>
-1.23192581192449

> <r_i_glide_gscore>
-5.42194865784407

> <r_i_glide_lipo>
-2.92470021296391

> <r_i_glide_hbond>
0

> <r_i_glide_metal>
0

> <r_i_glide_rewards>
-0.98480521674647

> <r_i_glide_evdw>
-42.7550010681152

> <r_i_glide_ecoul>
0.129950284957886

> <r_i_glide_erotb>
0.60581428252839

> <r_i_glide_esite>
0

> <r_i_glide_emodel>
-33.619270854227

> <r_i_glide_energy>
-42.6250507831573

> <r_i_glide_einternal>
3.06796956062317

> <i_i_glide_confnum>
5

> <i_i_glide_posenum>
175

> <r_i_glide_eff_state_penalty>
0

> <IC50 (nM)>
59

> <PMID>
16055332

> <r_glide_shape_similarity>
0.747136473655701

> <s_m_subgroup_title>
505 training

> <s_m_subgroupid>
pocket_pv

> <b_m_subgroup_collapsed>
0

$$$$
BindingDB_50119073_mol_1
                    3D
 Schrodinger Suite 2021-2.
 54 56  0  0  1  0            999 V2000
   22.6679    0.3236   53.3689 C   0  0  0  0  0  0
   21.2575    0.2317   53.1680 C   0  0  0  0  0  0
   23.3241   -0.6186   54.2160 C   0  0  0  0  0  0
   20.5778   -0.8529   53.7714 C   0  0  0  0  0  0
   23.4340    1.3378   52.7406 C   0  0  0  0  0  0
   22.6329   -1.5745   54.8768 N   0  0  0  0  0  0
   24.7296   -0.5385   54.3672 C   0  0  0  0  0  0
   20.5812    1.3005   52.5488 N   0  0  0  0  0  0
   19.1627   -1.1359   53.5739 C   0  0  0  0  0  0
   18.0390   -1.3688   53.4134 N   0  0  0  0  0  0
   24.8423    1.3919   52.8851 C   0  0  0  0  0  0
   25.4995    0.4413   53.6790 C   0  0  0  0  0  0
   20.2731    2.9119   47.9607 C   0  0  0  0  0  0
   20.7755    3.5329   47.0325 C   0  0  0  0  0  0
   21.3115   -1.6833   54.6359 C   0  0  0  0  0  0
   19.8321    1.3271   51.3647 C   0  0  0  0  0  0
   19.6544    2.2409   49.0939 C   0  0  0  0  0  0
   20.4446    1.8374   50.1963 C   0  0  0  0  0  0
   25.6545    2.3057   52.2524 O   0  0  0  0  0  0
   26.8757    0.5410   53.7113 O   0  0  0  0  0  0
   17.6433    1.4961   50.2618 C   0  0  0  0  0  0
   26.4616    3.5689   49.4250 O   0  0  0  0  0  0
   29.7919   -1.6479   53.6869 O   0  0  0  0  0  0
   18.4262    1.1493   51.3866 C   0  0  0  0  0  0
   18.2535    2.0633   49.1222 C   0  0  0  0  0  0
   27.6023   -0.6314   54.0246 C   0  0  0  0  0  0
   25.0599    3.2990   51.4208 C   0  0  0  0  0  0
   28.9101   -0.6289   53.2344 C   0  0  0  0  0  0
   26.1989    4.0658   50.7371 C   0  0  0  0  0  0
   27.3776    4.4007   48.7192 C   0  0  0  0  0  0
   29.3958   -2.9715   53.3561 C   0  0  0  0  0  0
   22.9446    2.0592   52.1092 H   0  0  0  0  0  0
   25.2055   -1.2590   55.0136 H   0  0  0  0  0  0
   21.1733    2.1198   52.5766 H   0  0  0  0  0  0
   21.1993    4.1025   46.2346 H   0  0  0  0  0  0
   20.8022   -2.4659   55.1705 H   0  0  0  0  0  0
   21.5071    2.0293   50.1841 H   0  0  0  0  0  0
   16.5703    1.3892   50.2974 H   0  0  0  0  0  0
   17.9136    0.8581   52.2863 H   0  0  0  0  0  0
   17.6434    2.3743   48.2860 H   0  0  0  0  0  0
   27.8007   -0.6429   55.0958 H   0  0  0  0  0  0
   27.0438   -1.5317   53.7683 H   0  0  0  0  0  0
   24.3964    2.8713   50.6674 H   0  0  0  0  0  0
   24.4794    3.9793   52.0466 H   0  0  0  0  0  0
   28.7073   -0.7398   52.1742 H   0  0  0  0  0  0
   29.4163    0.3285   53.3680 H   0  0  0  0  0  0
   25.9567    5.1295   50.6971 H   0  0  0  0  0  0
   27.0894    3.9341   51.3429 H   0  0  0  0  0  0
   27.6522    3.9350   47.7761 H   0  0  0  0  0  0
   26.9307    5.3705   48.4998 H   0  0  0  0  0  0
   28.2907    4.5628   49.2922 H   0  0  0  0  0  0
   30.1263   -3.6639   53.7744 H   0  0  0  0  0  0
   28.4291   -3.2453   53.7734 H   0  0  0  0  0  0
   29.3567   -3.1247   52.2767 H   0  0  0  0  0  0
  1  2  2  0  0  0
  1  3  1  0  0  0
  1  5  1  0  0  0
  2  4  1  0  0  0
  2  8  1  0  0  0
  3  6  2  0  0  0
  3  7  1  0  0  0
  4  9  1  0  0  0
  4 15  2  0  0  0
  5 11  2  0  0  0
  5 32  1  0  0  0
  6 15  1  0  0  0
  7 12  2  0  0  0
  7 33  1  0  0  0
  8 16  1  0  0  0
  8 34  1  0  0  0
  9 10  3  0  0  0
 11 12  1  0  0  0
 11 19  1  0  0  0
 12 20  1  0  0  0
 13 14  3  0  0  0
 13 17  1  0  0  0
 14 35  1  0  0  0
 15 36  1  0  0  0
 16 18  2  0  0  0
 16 24  1  0  0  0
 17 18  1  0  0  0
 17 25  2  0  0  0
 18 37  1  0  0  0
 19 27  1  0  0  0
 20 26  1  0  0  0
 21 24  2  0  0  0
 21 25  1  0  0  0
 21 38  1  0  0  0
 22 29  1  0  0  0
 22 30  1  0  0  0
 23 28  1  0  0  0
 23 31  1  0  0  0
 24 39  1  0  0  0
 25 40  1  0  0  0
 26 28  1  0  0  0
 26 41  1  0  0  0
 26 42  1  0  0  0
 27 29  1  0  0  0
 27 43  1  0  0  0
 27 44  1  0  0  0
 28 45  1  0  0  0
 28 46  1  0  0  0
 29 47  1  0  0  0
 29 48  1  0  0  0
 30 49  1  0  0  0
 30 50  1  0  0  0
 30 51  1  0  0  0
 31 52  1  0  0  0
 31 53  1  0  0  0
 31 54  1  0  0  0
M  END
> <s_m_entry_id>
465

> <s_m_entry_name>
pocket_pv.276

> <s_m_Source_Path>
/home/bortolaa/Project/GT/mario-master/docking/set505protein_struct_1_site_1_set505ligs_train

> <s_m_Source_File>
pocket_pv.maegz

> <i_m_Source_File_Index>
276

> <From>
www.bindingDB.org

> <BindingDB Reactant_set_id>
50736833

> <Ligand InChI>
InChI=1S/C24H23N3O4/c1-4-17-6-5-7-19(12-17)27-24-18(15-25)16-26-21-14-23(31-11-9-29-3)22(13-20(21)24)30-10-8-28-2/h1,5-7,12-14,16H,8-11H2,2-3H3,(H,26,27)

> <Ligand InChI Key>
PNKFULCCPOFCJC-UHFFFAOYSA-N

> <BindingDB MonomerID>
50119073

> <BindingDB Ligand Name>
4-(3-Ethynyl-phenylamino)-6,7-bis-(2-methoxy-ethoxy)-quinoline-3-carbonitrile::CHEMBL95320

> <Target Name Assigned by Curator or DataSource>
Epidermal growth factor receptor

> <Target Source Organism According to Curator or DataSource>
Homo sapiens

> <Ki (nM)>


> <IC50 (nM)>
850

> <Kd (nM)>


> <EC50 (nM)>


> <kon (M-1-s-1)>


> <koff (s-1)>


> <pH>


> <Temp C>


> <Curation/DataSource>
ChEMBL

> <Article DOI>
10.1016/s0960-894x(02)00598-x

> <PubChem AID>


> <Patent Number>


> <Authors>
Wissner, A; Brawner Floyd, MB; Rabindran, SK; Nilakantan, R; Greenberger, LM; Shen, R; Wang, YF; Tsou, HR

> <Institution>
Wyeth Research

> <Link to Ligand in BindingDB>
http://www.bindingdb.org/bind/chemsearch/marvin/MolStructure.jsp?monomerid=50119073

> <Link to Ligand-Target Pair in BindingDB>
http://www.bindingdb.org/jsp/dbsearch/PrimarySearch_ki.jsp?energyterm=kJ/mole&tag=r21&monomerid=50119073&enzyme=Epidermal+growth+factor+receptor&column=ki&startPg=0&Increment=50&submit=Search

> <Ligand HET ID in PDB>


> <PDB ID(s) for Ligand-Target Complex>


> <PubChem CID>
9979362

> <PubChem SID>
104012321

> <ChEBI ID of Ligand>


> <ChEMBL ID of Ligand>
CHEMBL95320

> <DrugBank ID of Ligand>


> <IUPHAR_GRAC ID of Ligand>


> <KEGG ID of Ligand>


> <ZINC ID of Ligand>
ZINC26726148

> <Number of Protein Chains in Target (>
1

> <BindingDB Target Chain Sequence>
MRPSGTAGAALLALLAALCPASRALEEKKVCQGTSNKLTQLGTFEDHFLSLQRMFNNCEVVLGNLEITYVQRNYDLSFLKTIQEVAGYVLIALNTVERIPLENLQIIRGNMYYENSYALAVLSNYDANKTGLKELPMRNLQEILHGAVRFSNNPALCNVESIQWRDIVSSDFLSNMSMDFQNHLGSCQKCDPSCPNGSCWGAGEENCQKLTKIICAQQCSGRCRGKSPSDCCHNQCAAGCTGPRESDCLVCRKFRDEATCKDTCPPLMLYNPTTYQMDVNPEGKYSFGATCVKKCPRNYVVTDHGSCVRACGADSYEMEEDGVRKCKKCEGPCRKVCNGIGIGEFKDSLSINATNIKHFKNCTSISGDLHILPVAFRGDSFTHTPPLDPQELDILKTVKEITGFLLIQAWPENRTDLHAFENLEIIRGRTKQHGQFSLAVVSLNITSLGLRSLKEISDGDVIISGNKNLCYANTINWKKLFGTSGQKTKIISNRGENSCKATGQVCHALCSPEGCWGPEPRDCVSCRNVSRGRECVDKCNLLEGEPREFVENSECIQCHPECLPQAMNITCTGRGPDNCIQCAHYIDGPHCVKTCPAGVMGENNTLVWKYADAGHVCHLCHPNCTYGCTGPGLEGCPTNGPKIPSIATGMVGALLLLLVVALGIGLFMRRRHIVRKRTLRRLLQERELVEPLTPSGEAPNQALLRILKETEFKKIKVLGSGAFGTVYKGLWIPEGEKVKIPVAIKELREATSPKANKEILDEAYVMASVDNPHVCRLLGICLTSTVQLITQLMPFGCLLDYVREHKDNIGSQYLLNWCVQIAKGMNYLEDRRLVHRDLAARNVLVKTPQHVKITDFGLAKLLGAEEKEYHAEGGKVPIKWMALESILHRIYTHQSDVWSYGVTVWELMTFGSKPYDGIPASEISSILEKGERLPQPPICTIDVYMIMVKCWMIDADSRPKFRELIIEFSKMARDPQRYLVIQGDERMHLPSPTDSNFYRALMDEEDMDDVVDADEYLIPQQGFFSSPSTSRTPLLSSLSATSNNSTVACIDRNGLQSCPIKEDSFLQRYSSDPTGALTEDSIDDTFLPVPEYINQSVPKRPAGSVQNPVYHNQPLNPAPSRDPHYQDPHSTAVGNPEYLNTVQPTCVNSTFDSPAHWAQKGSHQISLDNPDYQQDFFPKEAKPNGIFKGSTAENAEYLRVAPQSSEFIGA

> <PDB ID(s) of Target Chain>
1IVO,1M14,1M17,1MOX,1XKK,1Z9I,2GS2,2GS6,2ITW,2ITX,2ITY,2J5E,2J5F,2J6M,2RF9,2RGP,3B2V,3BEL,3GOP,3POZ,3QWQ,3VJO,3W2O,3W2P,3W2Q,3W2R,3W2S,3W32,3W33,4G5J,4I23,4JQ7,4JQ8,4JR3,4JRV,4KRO,4LI5,4RJ4,4RJ5,4RJ6,4RJ7,4RJ8,4TKS,4UIP,4UV7,4WKQ,4WRG,4ZAU,5C8K,5C8M,5C8N,5CAL,5CAN,5CAO,5CAP,5CAQ,5CAS,5CAU,5CAV,5EDP,5EDQ,5EDR,5EM5,5EM6,5EM7,5EM8,5FED,5GNK,5HCX,5HCY,5HCZ,5HIB,5HIC,5UGB,5WB7,5WB8,5Y25,6S89,6S8A

> <UniProt (SwissProt) Recommended Name of Target Chain>
Epidermal growth factor receptor

> <UniProt (SwissProt) Entry Name of Target Chain>
EGFR_HUMAN

> <UniProt (SwissProt) Primary ID of Target Chain>
P00533

> <UniProt (SwissProt) Secondary ID(s) of Target Chain>
O00688,O00732,P06268,Q14225,Q68GS5,Q92795,Q9BZS2,Q9GZX1,Q9H2C9,Q9H3C9,Q9UMD7,Q9UMD8,Q9UMG5

> <UniProt (SwissProt) Alternative ID(s) of Target Chain>


> <UniProt (TrEMBL) Submitted Name of Target Chain>


> <UniProt (TrEMBL) Entry Name of Target Chain>


> <UniProt (TrEMBL) Primary ID of Target Chain>


> <UniProt (TrEMBL) Secondary ID(s) of Target Chain>


> <UniProt (TrEMBL) Alternative ID(s) of Target Chain>


> <training label>
6.07058

> <i_lp_mmshare_version>
54117

> <s_epik_input>
W0NIM11PW0NIMl1bQ0gyXU9jKFtjSF0xKWMoT1tDSDJdW0NIMl1PW0NIM10pW2NIXWMoYzEyKW5bY0hdYyhDI04pYzJbTkhdYzNbY0hdYyhDI1tDSF0pW2NIXVtjSF1bY0hdMw==

> <s_epik_cmdline>
J2VwaWtfcHl0aG9uJywgJy1waHQnLCAnMC4xJywgJy1waCcsICc3LjQnLCAnLXRuJywgJzgnLCAnLW1hJywgJzIwMCcsICctaW1hZScsICc8aW5maWxlLm1hZT4nLCAnLW9tYWUnLCAnPG91dGZpbGUubWFlPic=

> <r_lp_tautomer_probability>
1

> <r_epik_Ionization_Penalty>
  0.0006

> <r_epik_Ionization_Penalty_Charging>
  0.0000

> <r_epik_Ionization_Penalty_Neutral>
  0.0006

> <r_epik_State_Penalty>
  0.0000

> <r_epik_Charging_Adjusted_Penalty>
0

> <i_epik_Tot_Q>
0

> <i_epik_Tot_abs_Q>
0

> <i_f3d_flags>
0

> <s_lp_Force_Field>
OPLS_2005

> <r_lp_Energy>
30.29553

> <b_lp_Chiralities_Consistent>
1

> <s_lp_Variant>
BindingDB_50119073_mol_1-1

> <s_i_glide_gridfile>
struct_1_site_1

> <i_i_glide_lignum>
74

> <i_i_glide_rotatable_bonds>
11

> <r_i_docking_score>
-5.34086165794964

> <r_i_glide_ligand_efficiency>
-0.172285859933859

> <r_i_glide_ligand_efficiency_sa>
-0.54121546645733

> <r_i_glide_ligand_efficiency_ln>
-1.2045279816205

> <r_i_glide_gscore>
-5.34086165794964

> <r_i_glide_lipo>
-3.00979865636402

> <r_i_glide_hbond>
0

> <r_i_glide_metal>
0

> <r_i_glide_rewards>
-0.864736921109486

> <r_i_glide_evdw>
-47.1472129821777

> <r_i_glide_ecoul>
-0.864816009998322

> <r_i_glide_erotb>
1.02075697013251

> <r_i_glide_esite>
0

> <r_i_glide_emodel>
-31.7083436868884

> <r_i_glide_energy>
-48.0120289921761

> <r_i_glide_einternal>
4.03106689453125

> <i_i_glide_confnum>
281

> <i_i_glide_posenum>
281

> <r_i_glide_eff_state_penalty>
0

> <PMID>
12270171

> <r_glide_shape_similarity>
0.687567353248596

> <s_m_subgroup_title>
505 training

> <s_m_subgroupid>
pocket_pv

> <b_m_subgroup_collapsed>
0

$$$$
/home/bortolaa/Project/GT/mario-master/ligands/set505ligs_train.sdf:57
                    3D
 Schrodinger Suite 2021-2.
 62 64  0  0  1  0            999 V2000
   20.5066    0.4622   52.1662 C   0  0  0  0  0  0
   19.1313    0.1403   52.1944 C   0  0  0  0  0  0
   18.2718    0.8614   51.3123 C   0  0  0  0  0  0
   18.7860    1.7261   50.4043 N   0  0  0  0  0  0
   20.1127    1.8592   50.3629 C   0  0  0  0  0  0
   20.9801    1.2912   51.2043 N   0  0  0  0  0  0
   16.8713    0.6621   51.4184 C   0  0  0  0  0  0
   16.3306   -0.3364   52.2729 C   0  0  0  0  0  0
   17.2253   -1.1667   52.9920 C   0  0  0  0  0  0
   18.6076   -0.8662   53.0279 C   0  0  0  0  0  0
   16.6907   -2.2772   53.6086 O   0  0  0  0  0  0
   17.5668   -3.3500   53.9365 C   0  0  0  0  0  0
   14.9828   -0.6298   52.3990 O   0  0  0  0  0  0
   13.9894    0.3584   52.1337 C   0  0  0  0  0  0
   13.7422    1.2680   53.3651 C   0  0  0  0  0  0
   12.7232    2.3540   53.1264 N   0  3  0  0  0  0
   11.3292    1.8691   52.8370 C   0  0  0  0  0  0
   12.7363    3.4270   54.1733 C   0  0  0  0  0  0
   10.6657    1.0735   53.9911 C   0  0  0  0  0  0
   13.9444    4.3836   54.0597 C   0  0  0  0  0  0
   21.3823   -0.0623   53.1473 N   0  0  0  0  0  0
   22.7405    0.2332   53.3711 C   0  0  0  0  0  0
   23.3319    1.4610   52.9739 C   0  0  0  0  0  0
   24.7214    1.6661   53.0512 C   0  0  0  0  0  0
   25.5481    0.6474   53.5503 C   0  0  0  0  0  0
   24.9548   -0.5386   54.0646 C   0  0  0  0  0  0
   23.5564   -0.7397   53.9899 C   0  0  0  0  0  0
   26.9424    0.8886   53.5395 N   0  0  0  0  0  0
   27.9342   -0.0686   53.4071 C   0  0  0  0  0  0
   29.1098    0.5462   53.5133 O   0  0  0  0  0  0
   27.7969   -1.2829   53.2489 O   0  0  0  0  0  0
   30.2874   -0.2450   53.5856 C   0  0  0  0  0  0
   20.5197    2.5301   49.6200 H   0  0  0  0  0  0
   16.2435    1.2546   50.7759 H   0  0  0  0  0  0
   19.2700   -1.4542   53.6400 H   0  0  0  0  0  0
   16.9815   -4.2205   54.2350 H   0  0  0  0  0  0
   18.1670   -3.6399   53.0673 H   0  0  0  0  0  0
   18.2279   -3.0898   54.7659 H   0  0  0  0  0  0
   14.2015    0.9435   51.2418 H   0  0  0  0  0  0
   13.0777   -0.1934   51.9080 H   0  0  0  0  0  0
   13.4554    0.6699   54.2302 H   0  0  0  0  0  0
   14.6894    1.7285   53.6290 H   0  0  0  0  0  0
   10.7004    2.7274   52.5949 H   0  0  0  0  0  0
   11.3315    1.2589   51.9335 H   0  0  0  0  0  0
   11.8362    4.0370   54.0762 H   0  0  0  0  0  0
   12.6877    2.9818   55.1678 H   0  0  0  0  0  0
    9.6403    0.8137   53.7240 H   0  0  0  0  0  0
   11.1935    0.1448   54.2066 H   0  0  0  0  0  0
   10.6126    1.6600   54.9092 H   0  0  0  0  0  0
   13.8952    5.1340   54.8486 H   0  0  0  0  0  0
   14.8976    3.8739   54.1720 H   0  0  0  0  0  0
   13.9516    4.9106   53.1029 H   0  0  0  0  0  0
   20.9959   -0.7942   53.7232 H   0  0  0  0  0  0
   22.7387    2.2657   52.5710 H   0  0  0  0  0  0
   25.1479    2.5938   52.6990 H   0  0  0  0  0  0
   25.5623   -1.3211   54.4928 H   0  0  0  0  0  0
   23.1335   -1.6711   54.3416 H   0  0  0  0  0  0
   27.2616    1.8487   53.5279 H   0  0  0  0  0  0
   31.1459    0.4000   53.7631 H   0  0  0  0  0  0
   30.4552   -0.7965   52.6615 H   0  0  0  0  0  0
   30.2334   -0.9503   54.4149 H   0  0  0  0  0  0
   12.9968    2.8289   52.2701 H   0  0  0  0  0  0
  1  2  2  0  0  0
  1  6  1  0  0  0
  1 21  1  0  0  0
  2 10  1  0  0  0
  2  3  1  0  0  0
  3  4  2  0  0  0
  3  7  1  0  0  0
  4  5  1  0  0  0
  5  6  2  0  0  0
  5 33  1  0  0  0
  7  8  2  0  0  0
  7 34  1  0  0  0
  8  9  1  0  0  0
  8 13  1  0  0  0
  9 10  2  0  0  0
  9 11  1  0  0  0
 10 35  1  0  0  0
 11 12  1  0  0  0
 12 36  1  0  0  0
 12 37  1  0  0  0
 12 38  1  0  0  0
 13 14  1  0  0  0
 14 15  1  0  0  0
 14 39  1  0  0  0
 14 40  1  0  0  0
 15 16  1  0  0  0
 15 41  1  0  0  0
 15 42  1  0  0  0
 16 17  1  0  0  0
 16 18  1  0  0  0
 16 62  1  0  0  0
 17 19  1  0  0  0
 17 43  1  0  0  0
 17 44  1  0  0  0
 18 20  1  0  0  0
 18 45  1  0  0  0
 18 46  1  0  0  0
 19 47  1  0  0  0
 19 48  1  0  0  0
 19 49  1  0  0  0
 20 50  1  0  0  0
 20 51  1  0  0  0
 20 52  1  0  0  0
 21 22  1  0  0  0
 21 53  1  0  0  0
 22 23  2  0  0  0
 22 27  1  0  0  0
 23 24  1  0  0  0
 23 54  1  0  0  0
 24 25  2  0  0  0
 24 55  1  0  0  0
 25 26  1  0  0  0
 25 28  1  0  0  0
 26 27  2  0  0  0
 26 56  1  0  0  0
 27 57  1  0  0  0
 28 29  1  0  0  0
 28 58  1  0  0  0
 29 30  1  0  0  0
 29 31  2  0  0  0
 30 32  1  0  0  0
 32 59  1  0  0  0
 32 60  1  0  0  0
 32 61  1  0  0  0
M  CHG  1  16   1
M  END
> <s_m_entry_id>
466

> <s_m_entry_name>
pocket_pv.277

> <s_m_Source_Path>
/home/bortolaa/Project/GT/mario-master/docking/set505protein_struct_1_site_1_set505ligs_train

> <s_m_Source_File>
pocket_pv.maegz

> <i_m_Source_File_Index>
277

> <From>
www.bindingDB.org

> <BindingDB Reactant_set_id>
406578

> <Ligand InChI>
InChI=1S/C23H29N5O4/c1-5-28(6-2)11-12-32-21-14-19-18(13-20(21)30-3)22(25-15-24-19)26-16-7-9-17(10-8-16)27-23(29)31-4/h7-10,13-15H,5-6,11-12H2,1-4H3,(H,27,29)(H,24,25,26)

> <Ligand InChI Key>
UJEJSEICUBNOQH-UHFFFAOYSA-N

> <BindingDB MonomerID>
233096

> <BindingDB Ligand Name>
Methyl {4-[7-(2-diethylaminoethoxy)-6-methoxy-quinazolin-4-ylamino]phenyl}carbamate hydrochloride (7b)

> <Target Name Assigned by Curator or DataSource>
Epidermal growth factor receptor

> <Target Source Organism According to Curator or DataSource>
Homo sapiens

> <Ki (nM)>


> <IC50 (nM)>
1700

> <Kd (nM)>


> <EC50 (nM)>


> <kon (M-1-s-1)>


> <koff (s-1)>


> <Temp C>


> <Curation/DataSource>
Curated from the literature by BindingDB

> <Article DOI>
10.3109/14756360903169485

> <PubChem AID>


> <Patent Number>


> <Authors>
Garofalo, A; Goossens, L; Lemoine, A; Farce, A; Arlot, Y; Depreux, P

> <Institution>
Université Lille Nord de France

> <Link to Ligand in BindingDB>
http://www.bindingdb.org/bind/chemsearch/marvin/MolStructure.jsp?monomerid=233096

> <Link to Ligand-Target Pair in BindingDB>
http://www.bindingdb.org/jsp/dbsearch/PrimarySearch_ki.jsp?energyterm=kJ/mole&tag=r21&monomerid=233096&enzyme=Epidermal+growth+factor+receptor&column=ki&startPg=0&Increment=50&submit=Search

> <Ligand HET ID in PDB>


> <PDB ID(s) for Ligand-Target Complex>


> <PubChem CID>
129010595

> <PubChem SID>
340093190

> <ChEBI ID of Ligand>


> <ChEMBL ID of Ligand>


> <DrugBank ID of Ligand>


> <IUPHAR_GRAC ID of Ligand>


> <KEGG ID of Ligand>


> <ZINC ID of Ligand>


> <Number of Protein Chains in Target (>
1

> <BindingDB Target Chain Sequence>
MRPSGTAGAALLALLAALCPASRALEEKKVCQGTSNKLTQLGTFEDHFLSLQRMFNNCEVVLGNLEITYVQRNYDLSFLKTIQEVAGYVLIALNTVERIPLENLQIIRGNMYYENSYALAVLSNYDANKTGLKELPMRNLQEILHGAVRFSNNPALCNVESIQWRDIVSSDFLSNMSMDFQNHLGSCQKCDPSCPNGSCWGAGEENCQKLTKIICAQQCSGRCRGKSPSDCCHNQCAAGCTGPRESDCLVCRKFRDEATCKDTCPPLMLYNPTTYQMDVNPEGKYSFGATCVKKCPRNYVVTDHGSCVRACGADSYEMEEDGVRKCKKCEGPCRKVCNGIGIGEFKDSLSINATNIKHFKNCTSISGDLHILPVAFRGDSFTHTPPLDPQELDILKTVKEITGFLLIQAWPENRTDLHAFENLEIIRGRTKQHGQFSLAVVSLNITSLGLRSLKEISDGDVIISGNKNLCYANTINWKKLFGTSGQKTKIISNRGENSCKATGQVCHALCSPEGCWGPEPRDCVSCRNVSRGRECVDKCNLLEGEPREFVENSECIQCHPECLPQAMNITCTGRGPDNCIQCAHYIDGPHCVKTCPAGVMGENNTLVWKYADAGHVCHLCHPNCTYGCTGPGLEGCPTNGPKIPSIATGMVGALLLLLVVALGIGLFMRRRHIVRKRTLRRLLQERELVEPLTPSGEAPNQALLRILKETEFKKIKVLGSGAFGTVYKGLWIPEGEKVKIPVAIKELREATSPKANKEILDEAYVMASVDNPHVCRLLGICLTSTVQLITQLMPFGCLLDYVREHKDNIGSQYLLNWCVQIAKGMNYLEDRRLVHRDLAARNVLVKTPQHVKITDFGLAKLLGAEEKEYHAEGGKVPIKWMALESILHRIYTHQSDVWSYGVTVWELMTFGSKPYDGIPASEISSILEKGERLPQPPICTIDVYMIMVKCWMIDADSRPKFRELIIEFSKMARDPQRYLVIQGDERMHLPSPTDSNFYRALMDEEDMDDVVDADEYLIPQQGFFSSPSTSRTPLLSSLSATSNNSTVACIDRNGLQSCPIKEDSFLQRYSSDPTGALTEDSIDDTFLPVPEYINQSVPKRPAGSVQNPVYHNQPLNPAPSRDPHYQDPHSTAVGNPEYLNTVQPTCVNSTFDSPAHWAQKGSHQISLDNPDYQQDFFPKEAKPNGIFKGSTAENAEYLRVAPQSSEFIGA

> <PDB ID(s) of Target Chain>
1IVO,1M14,1M17,1MOX,1XKK,1Z9I,2GS2,2GS6,2ITW,2ITX,2ITY,2J5E,2J5F,2J6M,2RF9,2RGP,3B2V,3BEL,3GOP,3POZ,3QWQ,3VJO,3W2O,3W2P,3W2Q,3W2R,3W2S,3W32,3W33,4G5J,4I23,4JQ7,4JQ8,4JR3,4JRV,4KRO,4LI5,4RJ4,4RJ5,4RJ6,4RJ7,4RJ8,4TKS,4UIP,4UV7,4WKQ,4WRG,4ZAU,5C8K,5C8M,5C8N,5CAL,5CAN,5CAO,5CAP,5CAQ,5CAS,5CAU,5CAV,5EDP,5EDQ,5EDR,5EM5,5EM6,5EM7,5EM8,5FED,5GNK,5HCX,5HCY,5HCZ,5HIB,5HIC,5UGB,5WB7,5WB8,5Y25,6S89,6S8A

> <UniProt (SwissProt) Recommended Name of Target Chain>
Epidermal growth factor receptor

> <UniProt (SwissProt) Entry Name of Target Chain>
EGFR_HUMAN

> <UniProt (SwissProt) Primary ID of Target Chain>
P00533

> <UniProt (SwissProt) Secondary ID(s) of Target Chain>
O00688,O00732,P06268,Q14225,Q68GS5,Q92795,Q9BZS2,Q9GZX1,Q9H2C9,Q9H3C9,Q9UMD7,Q9UMD8,Q9UMG5

> <UniProt (SwissProt) Alternative ID(s) of Target Chain>


> <UniProt (TrEMBL) Submitted Name of Target Chain>


> <UniProt (TrEMBL) Entry Name of Target Chain>


> <UniProt (TrEMBL) Primary ID of Target Chain>


> <UniProt (TrEMBL) Secondary ID(s) of Target Chain>


> <UniProt (TrEMBL) Alternative ID(s) of Target Chain>


> <training label>
5.76955

> <i_lp_mmshare_version>
54117

> <s_epik_input>
W0NIM11PQyg9TylbTkhdYyhbY0hdW2NIXTEpW2NIXVtjSF1jMVtOSF1jMm5bY0hdbmMoYzIzKVtjSF1jKGMoW2NIXTMpT1tDSDNdKU9bQ0gyXVtDSDJdTihbQ0gyXVtDSDNdKVtDSDJdW0NIM10=

> <s_epik_cmdline>
J2VwaWtfcHl0aG9uJywgJy1waHQnLCAnMC4xJywgJy1waCcsICc3LjQnLCAnLXRuJywgJzgnLCAnLW1hJywgJzIwMCcsICctaW1hZScsICc8aW5maWxlLm1hZT4nLCAnLW9tYWUnLCAnPG91dGZpbGUubWFlPic=

> <r_lp_tautomer_probability>
0.999978000241998

> <r_epik_Ionization_Penalty>
  0.0610

> <r_epik_Ionization_Penalty_Charging>
  0.0604

> <r_epik_Ionization_Penalty_Neutral>
  0.0006

> <r_epik_State_Penalty>
  0.0524

> <r_epik_Charging_Adjusted_Penalty>
0.112841773912698

> <i_epik_Tot_Q>
1

> <i_epik_Tot_abs_Q>
1

> <i_f3d_flags>
0

> <s_lp_Force_Field>
OPLS_2005

> <r_lp_Energy>
33.53897

> <b_lp_Chiralities_Consistent>
1

> <s_lp_Variant>
/home/bortolaa/Project/GT/mario-master/ligands/set505ligs_train.sdf:57-1

> <s_i_glide_gridfile>
struct_1_site_1

> <i_i_glide_lignum>
57

> <i_i_glide_rotatable_bonds>
12

> <r_i_docking_score>
-5.3354470281349

> <r_i_glide_ligand_efficiency>
-0.166732719629215

> <r_i_glide_ligand_efficiency_sa>
-0.52934338846235

> <r_i_glide_ligand_efficiency_ln>
-1.19475202839243

> <r_i_glide_gscore>
-5.3878470281349

> <r_i_glide_lipo>
-2.86436136443705

> <r_i_glide_hbond>
0

> <r_i_glide_metal>
0

> <r_i_glide_rewards>
-0.883657161947651

> <r_i_glide_evdw>
-46.7153091430664

> <r_i_glide_ecoul>
-0.811854958534241

> <r_i_glide_erotb>
0.823165013777964

> <r_i_glide_esite>
-0.00544981459469778

> <r_i_glide_emodel>
-30.3236785598118

> <r_i_glide_energy>
-47.5271641016006

> <r_i_glide_einternal>
4.11961030960083

> <i_i_glide_confnum>
148

> <i_i_glide_posenum>
288

> <r_i_glide_eff_state_penalty>
0.0524

> <PMID>
20222760

> <s_epik_Chemistry_Notes>
This compound has an ester and may undergo hydrolysis at high or low pH.

> <r_glide_shape_similarity>
0.647127568721771

> <pH>
7.5

> <s_m_subgroup_title>
505 training

> <s_m_subgroupid>
pocket_pv

> <b_m_subgroup_collapsed>
0

$$$$
BindingDB_50314990_mol_1
                    3D
 Schrodinger Suite 2021-2.
 54 56  0  0  1  0            999 V2000
   20.1519    0.5627   52.1119 C   0  0  0  0  0  0
   19.3211   -0.3695   52.7808 C   0  0  0  0  0  0
   19.8770   -1.2169   53.7763 C   0  0  0  0  0  0
   21.5200    0.6746   52.4693 C   0  0  0  0  0  0
   22.0757   -0.1432   53.4826 C   0  0  0  0  0  0
   21.2454   -1.1029   54.1149 C   0  0  0  0  0  0
   21.7898   -1.9237   55.0363 N   0  3  0  0  0  0
   23.0654   -1.8164   55.4839 C   0  0  0  0  0  0
   23.9229   -0.8673   54.9137 C   0  0  0  0  0  0
   23.4450   -0.0498   53.8615 C   0  0  0  0  0  0
   24.2902    0.8898   53.2549 N   0  0  0  0  0  0
   25.6872    0.9686   53.3322 C   0  0  0  0  0  0
   26.5103   -0.1856   53.3207 C   0  0  0  0  0  0
   27.9150   -0.0533   53.3812 C   0  0  0  0  0  0
   28.5058    1.2286   53.4433 C   0  0  0  0  0  0
   27.6871    2.3760   53.4308 C   0  0  0  0  0  0
   26.2840    2.2483   53.3703 C   0  0  0  0  0  0
   19.5521    1.2809   51.0946 O   0  0  0  0  0  0
   20.0541    2.5543   50.6862 C   0  0  0  0  0  0
   19.6543    2.7724   49.2083 C   0  0  0  0  0  0
   20.2806    1.8268   48.3406 O   0  0  0  0  0  0
   21.7054    1.8839   48.2892 C   0  0  0  0  0  0
   28.7440   -1.2482   53.3679 C   0  0  0  0  0  0
   29.3777   -2.2919   53.3610 C   0  0  0  0  0  0
   17.9963   -0.3766   52.3869 O   0  0  0  0  0  0
   17.0777   -1.2157   53.0708 C   0  0  0  0  0  0
   15.6617   -0.9248   52.5407 C   0  0  0  0  0  0
   15.1619    0.2423   53.1738 O   0  0  0  0  0  0
   13.7666    0.4203   52.9751 C   0  0  0  0  0  0
   19.2619   -1.9393   54.2905 H   0  0  0  0  0  0
   22.1634    1.3581   51.9438 H   0  0  0  0  0  0
   23.3766   -2.5005   56.2605 H   0  0  0  0  0  0
   24.9346   -0.7878   55.2865 H   0  0  0  0  0  0
   23.8366    1.6972   52.8440 H   0  0  0  0  0  0
   26.0713   -1.1699   53.2466 H   0  0  0  0  0  0
   29.5821    1.3378   53.4934 H   0  0  0  0  0  0
   28.1298    3.3624   53.4680 H   0  0  0  0  0  0
   25.6794    3.1434   53.3549 H   0  0  0  0  0  0
   19.5892    3.3229   51.3042 H   0  0  0  0  0  0
   21.1252    2.6914   50.8006 H   0  0  0  0  0  0
   18.5734    2.6793   49.1033 H   0  0  0  0  0  0
   19.9139    3.7844   48.8918 H   0  0  0  0  0  0
   22.0737    1.2132   47.5140 H   0  0  0  0  0  0
   22.0541    2.8920   48.0570 H   0  0  0  0  0  0
   22.1537    1.5562   49.2285 H   0  0  0  0  0  0
   29.8921   -3.2258   53.3600 H   0  0  0  0  0  0
   17.3333   -2.2582   52.8795 H   0  0  0  0  0  0
   17.1110   -1.0564   54.1500 H   0  0  0  0  0  0
   15.6549   -0.8182   51.4560 H   0  0  0  0  0  0
   15.0193   -1.7707   52.7900 H   0  0  0  0  0  0
   13.4382    1.3361   53.4668 H   0  0  0  0  0  0
   13.5323    0.5064   51.9131 H   0  0  0  0  0  0
   13.1930   -0.4090   53.3944 H   0  0  0  0  0  0
   21.1969   -2.6780   55.3743 H   0  0  0  0  0  0
  1  2  2  0  0  0
  1  4  1  0  0  0
  1 18  1  0  0  0
  2  3  1  0  0  0
  2 25  1  0  0  0
  3  6  2  0  0  0
  3 30  1  0  0  0
  4  5  2  0  0  0
  4 31  1  0  0  0
  5  6  1  0  0  0
  5 10  1  0  0  0
  6  7  1  0  0  0
  7  8  2  0  0  0
  7 54  1  0  0  0
  8  9  1  0  0  0
  8 32  1  0  0  0
  9 10  2  0  0  0
  9 33  1  0  0  0
 10 11  1  0  0  0
 11 12  1  0  0  0
 11 34  1  0  0  0
 12 13  1  0  0  0
 12 17  2  0  0  0
 13 14  2  0  0  0
 13 35  1  0  0  0
 14 15  1  0  0  0
 14 23  1  0  0  0
 15 16  2  0  0  0
 15 36  1  0  0  0
 16 17  1  0  0  0
 16 37  1  0  0  0
 17 38  1  0  0  0
 18 19  1  0  0  0
 19 20  1  0  0  0
 19 39  1  0  0  0
 19 40  1  0  0  0
 20 21  1  0  0  0
 20 41  1  0  0  0
 20 42  1  0  0  0
 21 22  1  0  0  0
 22 43  1  0  0  0
 22 44  1  0  0  0
 22 45  1  0  0  0
 23 24  3  0  0  0
 24 46  1  0  0  0
 25 26  1  0  0  0
 26 27  1  0  0  0
 26 47  1  0  0  0
 26 48  1  0  0  0
 27 28  1  0  0  0
 27 49  1  0  0  0
 27 50  1  0  0  0
 28 29  1  0  0  0
 29 51  1  0  0  0
 29 52  1  0  0  0
 29 53  1  0  0  0
M  CHG  1   7   1
M  END
> <s_m_entry_id>
467

> <s_m_entry_name>
pocket_pv.278

> <s_m_Source_Path>
/home/bortolaa/Project/GT/mario-master/docking/set505protein_struct_1_site_1_set505ligs_train

> <s_m_Source_File>
pocket_pv.maegz

> <i_m_Source_File_Index>
278

> <From>
www.bindingDB.org

> <BindingDB Reactant_set_id>
50568987

> <Ligand InChI>
InChI=1S/C23H24N2O4/c1-4-17-6-5-7-18(14-17)25-20-8-9-24-21-16-23(29-13-11-27-3)22(15-19(20)21)28-12-10-26-2/h1,5-9,14-16H,10-13H2,2-3H3,(H,24,25)

> <Ligand InChI Key>
ZQYQKUIFZATHRG-UHFFFAOYSA-N

> <BindingDB MonomerID>
50314990

> <BindingDB Ligand Name>
CHEMBL1089203::N-(3-Ethynylphenyl)-6,7-bis(2-methoxyethoxy)quinolin-4-amine

> <Target Name Assigned by Curator or DataSource>
Epidermal growth factor receptor

> <Target Source Organism According to Curator or DataSource>
Homo sapiens

> <Ki (nM)>


> <Kd (nM)>


> <EC50 (nM)>


> <kon (M-1-s-1)>


> <koff (s-1)>


> <pH>


> <Temp C>


> <Curation/DataSource>
ChEMBL

> <Article DOI>
10.1021/jm901877j

> <PubChem AID>


> <Patent Number>


> <Authors>
Pawar, VG; Sos, ML; Rode, HB; Rabiller, M; Heynck, S; van Otterlo, WA; Thomas, RK; Rauh, D

> <Institution>
Chemical Genomics Centre of the Max Planck Society

> <Link to Ligand in BindingDB>
http://www.bindingdb.org/bind/chemsearch/marvin/MolStructure.jsp?monomerid=50314990

> <Link to Ligand-Target Pair in BindingDB>
http://www.bindingdb.org/jsp/dbsearch/PrimarySearch_ki.jsp?energyterm=kJ/mole&tag=r21&monomerid=50314990&enzyme=Epidermal+growth+factor+receptor&column=ki&startPg=0&Increment=50&submit=Search

> <Ligand HET ID in PDB>


> <PDB ID(s) for Ligand-Target Complex>


> <PubChem CID>
46197129

> <PubChem SID>
104149351

> <ChEBI ID of Ligand>


> <ChEMBL ID of Ligand>
CHEMBL1089203

> <DrugBank ID of Ligand>


> <IUPHAR_GRAC ID of Ligand>


> <KEGG ID of Ligand>


> <ZINC ID of Ligand>
ZINC49067862

> <Number of Protein Chains in Target (>
1

> <BindingDB Target Chain Sequence>
MRPSGTAGAALLALLAALCPASRALEEKKVCQGTSNKLTQLGTFEDHFLSLQRMFNNCEVVLGNLEITYVQRNYDLSFLKTIQEVAGYVLIALNTVERIPLENLQIIRGNMYYENSYALAVLSNYDANKTGLKELPMRNLQEILHGAVRFSNNPALCNVESIQWRDIVSSDFLSNMSMDFQNHLGSCQKCDPSCPNGSCWGAGEENCQKLTKIICAQQCSGRCRGKSPSDCCHNQCAAGCTGPRESDCLVCRKFRDEATCKDTCPPLMLYNPTTYQMDVNPEGKYSFGATCVKKCPRNYVVTDHGSCVRACGADSYEMEEDGVRKCKKCEGPCRKVCNGIGIGEFKDSLSINATNIKHFKNCTSISGDLHILPVAFRGDSFTHTPPLDPQELDILKTVKEITGFLLIQAWPENRTDLHAFENLEIIRGRTKQHGQFSLAVVSLNITSLGLRSLKEISDGDVIISGNKNLCYANTINWKKLFGTSGQKTKIISNRGENSCKATGQVCHALCSPEGCWGPEPRDCVSCRNVSRGRECVDKCNLLEGEPREFVENSECIQCHPECLPQAMNITCTGRGPDNCIQCAHYIDGPHCVKTCPAGVMGENNTLVWKYADAGHVCHLCHPNCTYGCTGPGLEGCPTNGPKIPSIATGMVGALLLLLVVALGIGLFMRRRHIVRKRTLRRLLQERELVEPLTPSGEAPNQALLRILKETEFKKIKVLGSGAFGTVYKGLWIPEGEKVKIPVAIKELREATSPKANKEILDEAYVMASVDNPHVCRLLGICLTSTVQLITQLMPFGCLLDYVREHKDNIGSQYLLNWCVQIAKGMNYLEDRRLVHRDLAARNVLVKTPQHVKITDFGLAKLLGAEEKEYHAEGGKVPIKWMALESILHRIYTHQSDVWSYGVTVWELMTFGSKPYDGIPASEISSILEKGERLPQPPICTIDVYMIMVKCWMIDADSRPKFRELIIEFSKMARDPQRYLVIQGDERMHLPSPTDSNFYRALMDEEDMDDVVDADEYLIPQQGFFSSPSTSRTPLLSSLSATSNNSTVACIDRNGLQSCPIKEDSFLQRYSSDPTGALTEDSIDDTFLPVPEYINQSVPKRPAGSVQNPVYHNQPLNPAPSRDPHYQDPHSTAVGNPEYLNTVQPTCVNSTFDSPAHWAQKGSHQISLDNPDYQQDFFPKEAKPNGIFKGSTAENAEYLRVAPQSSEFIGA

> <PDB ID(s) of Target Chain>
1IVO,1M14,1M17,1MOX,1XKK,1Z9I,2GS2,2GS6,2ITW,2ITX,2ITY,2J5E,2J5F,2J6M,2RF9,2RGP,3B2V,3BEL,3GOP,3POZ,3QWQ,3VJO,3W2O,3W2P,3W2Q,3W2R,3W2S,3W32,3W33,4G5J,4I23,4JQ7,4JQ8,4JR3,4JRV,4KRO,4LI5,4RJ4,4RJ5,4RJ6,4RJ7,4RJ8,4TKS,4UIP,4UV7,4WKQ,4WRG,4ZAU,5C8K,5C8M,5C8N,5CAL,5CAN,5CAO,5CAP,5CAQ,5CAS,5CAU,5CAV,5EDP,5EDQ,5EDR,5EM5,5EM6,5EM7,5EM8,5FED,5GNK,5HCX,5HCY,5HCZ,5HIB,5HIC,5UGB,5WB7,5WB8,5Y25,6S89,6S8A

> <UniProt (SwissProt) Recommended Name of Target Chain>
Epidermal growth factor receptor

> <UniProt (SwissProt) Entry Name of Target Chain>
EGFR_HUMAN

> <UniProt (SwissProt) Primary ID of Target Chain>
P00533

> <UniProt (SwissProt) Secondary ID(s) of Target Chain>
O00688,O00732,P06268,Q14225,Q68GS5,Q92795,Q9BZS2,Q9GZX1,Q9H2C9,Q9H3C9,Q9UMD7,Q9UMD8,Q9UMG5

> <UniProt (SwissProt) Alternative ID(s) of Target Chain>


> <UniProt (TrEMBL) Submitted Name of Target Chain>


> <UniProt (TrEMBL) Entry Name of Target Chain>


> <UniProt (TrEMBL) Primary ID of Target Chain>


> <UniProt (TrEMBL) Secondary ID(s) of Target Chain>


> <UniProt (TrEMBL) Alternative ID(s) of Target Chain>


> <training label>
7.52288

> <i_lp_mmshare_version>
54117

> <s_epik_input>
W0NIM11PW0NIMl1bQ0gyXU9jKFtjSF0xKWMoT1tDSDJdW0NIMl1PW0NIM10pW2NIXWMoYzEyKW5bY0hdW2NIXWMyW05IXWMzW2NIXWMoQyNbQ0hdKVtjSF1bY0hdW2NIXTM=

> <s_epik_cmdline>
J2VwaWtfcHl0aG9uJywgJy1waHQnLCAnMC4xJywgJy1waCcsICc3LjQnLCAnLXRuJywgJzgnLCAnLW1hJywgJzIwMCcsICctaW1hZScsICc8aW5maWxlLm1hZT4nLCAnLW9tYWUnLCAnPG91dGZpbGUubWFlPic=

> <r_epik_Ionization_Penalty>
  0.1478

> <r_epik_Ionization_Penalty_Charging>
  0.1478

> <r_epik_Ionization_Penalty_Neutral>
  0.0000

> <r_epik_State_Penalty>
  0.1371

> <r_epik_Charging_Adjusted_Penalty>
0.284897145219937

> <i_epik_Tot_Q>
1

> <i_epik_Tot_abs_Q>
1

> <i_f3d_flags>
0

> <s_lp_Force_Field>
OPLS_2005

> <r_lp_Energy>
30.336195

> <b_lp_Chiralities_Consistent>
1

> <s_lp_Variant>
BindingDB_50314990_mol_1-1

> <s_i_glide_gridfile>
struct_1_site_1

> <i_i_glide_lignum>
198

> <i_i_glide_rotatable_bonds>
11

> <r_i_docking_score>
-5.2843140497865

> <r_i_glide_ligand_efficiency>
-0.182217725854707

> <r_i_glide_ligand_efficiency_sa>
-0.559830584453255

> <r_i_glide_ligand_efficiency_ln>
-1.20997391875852

> <r_i_glide_gscore>
-5.4214140497865

> <r_i_glide_lipo>
-3.92718379439138

> <r_i_glide_hbond>
0

> <r_i_glide_metal>
0

> <r_i_glide_rewards>
-0.72643909090909

> <r_i_glide_evdw>
-43.5853691101074

> <r_i_glide_ecoul>
1.83849513530731

> <r_i_glide_erotb>
1.13570302072325

> <r_i_glide_esite>
0

> <r_i_glide_emodel>
-50.3596892558784

> <r_i_glide_energy>
-41.7468739748001

> <r_i_glide_einternal>
4.34293794631958

> <i_i_glide_confnum>
279

> <i_i_glide_posenum>
34

> <r_i_glide_eff_state_penalty>
0.1371

> <IC50 (nM)>
30

> <PMID>
20222733

> <r_glide_shape_similarity>
0.915226638317108

> <s_m_subgroup_title>
505 training

> <s_m_subgroupid>
pocket_pv

> <b_m_subgroup_collapsed>
0

$$$$
BindingDB_50380447_mol_1
                    3D
 Schrodinger Suite 2021-2.
 66 68  0  0  1  0            999 V2000
   17.2980    1.1123   51.2380 C   0  0  0  0  0  0
   16.3121    0.3114   51.8928 C   0  0  0  0  0  0
   16.7304   -0.7787   52.6833 C   0  0  0  0  0  0
   18.6746    0.9184   51.5565 C   0  0  0  0  0  0
   16.8746    2.0956   50.3521 O   0  0  0  0  0  0
   17.8309    2.6724   49.4480 C   0  0  0  0  0  0
   14.9692    0.6189   51.7606 O   0  0  0  0  0  0
   14.0754    0.1245   52.7709 C   0  0  0  0  0  0
   19.0580   -0.0876   52.4768 C   0  0  0  0  0  0
   18.0844   -0.9848   52.9749 C   0  0  0  0  0  0
   18.4238   -2.0044   53.7769 N   0  0  0  0  0  0
   19.6859   -2.0667   54.1750 C   0  0  0  0  0  0
   20.6720   -1.2446   53.8466 N   0  0  0  0  0  0
   20.3727   -0.2626   52.9769 C   0  0  0  0  0  0
   21.3691    0.6340   52.6016 N   0  0  0  0  0  0
   22.7213    0.7238   52.9662 C   0  0  0  0  0  0
   23.4225   -0.1698   53.8244 C   0  0  0  0  0  0
   24.8061   -0.0184   54.0110 C   0  0  0  0  0  0
   25.4967    1.0323   53.3526 C   0  0  0  0  0  0
   24.7947    1.9696   52.5824 C   0  0  0  0  0  0
   23.4173    1.8044   52.3801 C   0  0  0  0  0  0
   12.6963    0.8180   52.6818 C   0  0  0  0  0  0
   12.5996    2.0993   53.4615 N   0  3  0  0  0  0
   13.2705    3.2496   52.7789 C   0  0  0  0  0  0
   13.6771    4.3824   53.7458 C   0  0  0  0  0  0
   11.1846    2.4126   53.8507 C   0  0  0  0  0  0
   10.7211    1.6164   55.0903 C   0  0  0  0  0  0
   26.8812    1.2143   53.4236 N   0  0  0  0  0  0
   27.7760    0.2295   53.4535 C   0  0  0  0  0  0
   29.0050    0.7303   53.5026 N   0  0  0  0  0  0
   27.5052   -0.9718   53.4872 O   0  0  0  0  0  0
   30.0939    0.0470   54.1717 C   0  0  0  0  0  0
   30.4512   -1.3318   53.6204 C   0  0  0  0  0  0
   16.0320   -1.4604   53.1433 H   0  0  0  0  0  0
   19.4211    1.5638   51.1262 H   0  0  0  0  0  0
   17.3143    3.2946   48.7195 H   0  0  0  0  0  0
   18.5377    3.3116   49.9778 H   0  0  0  0  0  0
   18.3714    1.9046   48.8941 H   0  0  0  0  0  0
   13.9284   -0.9416   52.5951 H   0  0  0  0  0  0
   14.4869    0.2426   53.7766 H   0  0  0  0  0  0
   19.8919   -2.8558   54.8796 H   0  0  0  0  0  0
   21.0613    1.3166   51.9253 H   0  0  0  0  0  0
   22.9706   -1.0114   54.3179 H   0  0  0  0  0  0
   25.3289   -0.7269   54.6380 H   0  0  0  0  0  0
   25.3109    2.7896   52.1034 H   0  0  0  0  0  0
   22.9091    2.5136   51.7429 H   0  0  0  0  0  0
   12.4035    0.9697   51.6453 H   0  0  0  0  0  0
   11.9662    0.1228   53.0913 H   0  0  0  0  0  0
   14.1753    2.9064   52.2853 H   0  0  0  0  0  0
   12.6216    3.6282   51.9912 H   0  0  0  0  0  0
   14.2664    5.1329   53.2252 H   0  0  0  0  0  0
   12.8143    4.8932   54.1680 H   0  0  0  0  0  0
   14.2827    4.0134   54.5704 H   0  0  0  0  0  0
   11.0820    3.4721   54.0927 H   0  0  0  0  0  0
   10.5109    2.2403   53.0079 H   0  0  0  0  0  0
    9.6906    1.8763   55.3367 H   0  0  0  0  0  0
   10.7470    0.5396   54.9258 H   0  0  0  0  0  0
   11.3408    1.8400   55.9612 H   0  0  0  0  0  0
   27.2103    2.1622   53.3365 H   0  0  0  0  0  0
   29.1257    1.7253   53.3674 H   0  0  0  0  0  0
   29.8138   -0.0689   55.2107 H   0  0  0  0  0  0
   30.9591    0.7029   54.1537 H   0  0  0  0  0  0
   31.3262   -1.6667   54.1807 H   0  0  0  0  0  0
   30.6805   -1.2675   52.5591 H   0  0  0  0  0  0
   29.6730   -2.0820   53.7682 H   0  0  0  0  0  0
   13.1063    1.9509   54.3285 H   0  0  0  0  0  0
  1  2  2  0  0  0
  1  4  1  0  0  0
  1  5  1  0  0  0
  2  3  1  0  0  0
  2  7  1  0  0  0
  3 10  2  0  0  0
  3 34  1  0  0  0
  4  9  2  0  0  0
  4 35  1  0  0  0
  5  6  1  0  0  0
  6 36  1  0  0  0
  6 37  1  0  0  0
  6 38  1  0  0  0
  7  8  1  0  0  0
  8 22  1  0  0  0
  8 39  1  0  0  0
  8 40  1  0  0  0
  9 10  1  0  0  0
  9 14  1  0  0  0
 10 11  1  0  0  0
 11 12  2  0  0  0
 12 13  1  0  0  0
 12 41  1  0  0  0
 13 14  2  0  0  0
 14 15  1  0  0  0
 15 16  1  0  0  0
 15 42  1  0  0  0
 16 17  2  0  0  0
 16 21  1  0  0  0
 17 18  1  0  0  0
 17 43  1  0  0  0
 18 19  2  0  0  0
 18 44  1  0  0  0
 19 20  1  0  0  0
 19 28  1  0  0  0
 20 21  2  0  0  0
 20 45  1  0  0  0
 21 46  1  0  0  0
 22 23  1  0  0  0
 22 47  1  0  0  0
 22 48  1  0  0  0
 23 24  1  0  0  0
 23 26  1  0  0  0
 23 66  1  0  0  0
 24 25  1  0  0  0
 24 49  1  0  0  0
 24 50  1  0  0  0
 25 51  1  0  0  0
 25 52  1  0  0  0
 25 53  1  0  0  0
 26 27  1  0  0  0
 26 54  1  0  0  0
 26 55  1  0  0  0
 27 56  1  0  0  0
 27 57  1  0  0  0
 27 58  1  0  0  0
 28 29  1  0  0  0
 28 59  1  0  0  0
 29 30  1  0  0  0
 29 31  2  0  0  0
 30 32  1  0  0  0
 30 60  1  0  0  0
 32 33  1  0  0  0
 32 61  1  0  0  0
 32 62  1  0  0  0
 33 63  1  0  0  0
 33 64  1  0  0  0
 33 65  1  0  0  0
M  CHG  1  23   1
M  END
> <s_m_entry_id>
468

> <s_m_entry_name>
pocket_pv.279

> <s_m_Source_Path>
/home/bortolaa/Project/GT/mario-master/docking/set505protein_struct_1_site_1_set505ligs_train

> <s_m_Source_File>
pocket_pv.maegz

> <i_m_Source_File_Index>
279

> <From>
www.bindingDB.org

> <BindingDB Reactant_set_id>
406599

> <Ligand InChI>
InChI=1S/C24H32N6O3/c1-5-25-24(31)29-18-10-8-17(9-11-18)28-23-19-14-21(32-4)22(15-20(19)26-16-27-23)33-13-12-30(6-2)7-3/h8-11,14-16H,5-7,12-13H2,1-4H3,(H2,25,29,31)(H,26,27,28)

> <Ligand InChI Key>
OPURPEXJKOYZRK-UHFFFAOYSA-N

> <BindingDB MonomerID>
50380447

> <BindingDB Ligand Name>
CHEMBL2018772::N-{4-[7-(2-Diethylaminoethoxy)-6-methoxy-quinazolin-4-ylamino]phenyl}-N&#39;-ethylurea hydrochloride (7i)

> <Target Name Assigned by Curator or DataSource>
Epidermal growth factor receptor

> <Target Source Organism According to Curator or DataSource>
Homo sapiens

> <Ki (nM)>


> <IC50 (nM)>
29100

> <Kd (nM)>


> <EC50 (nM)>


> <kon (M-1-s-1)>


> <koff (s-1)>


> <Temp C>


> <Curation/DataSource>
Curated from the literature by BindingDB

> <Article DOI>
10.3109/14756360903169485

> <PubChem AID>


> <Patent Number>


> <Authors>
Garofalo, A; Goossens, L; Lemoine, A; Farce, A; Arlot, Y; Depreux, P

> <Institution>
Université Lille Nord de France

> <Link to Ligand in BindingDB>
http://www.bindingdb.org/bind/chemsearch/marvin/MolStructure.jsp?monomerid=50380447

> <Link to Ligand-Target Pair in BindingDB>
http://www.bindingdb.org/jsp/dbsearch/PrimarySearch_ki.jsp?energyterm=kJ/mole&tag=r21&monomerid=50380447&enzyme=Epidermal+growth+factor+receptor&column=ki&startPg=0&Increment=50&submit=Search

> <Ligand HET ID in PDB>


> <PDB ID(s) for Ligand-Target Complex>


> <PubChem CID>
56954328

> <PubChem SID>
160859530

> <ChEBI ID of Ligand>


> <ChEMBL ID of Ligand>
CHEMBL2018772

> <DrugBank ID of Ligand>


> <IUPHAR_GRAC ID of Ligand>


> <KEGG ID of Ligand>


> <ZINC ID of Ligand>
ZINC84636087

> <Number of Protein Chains in Target (>
1

> <BindingDB Target Chain Sequence>
MRPSGTAGAALLALLAALCPASRALEEKKVCQGTSNKLTQLGTFEDHFLSLQRMFNNCEVVLGNLEITYVQRNYDLSFLKTIQEVAGYVLIALNTVERIPLENLQIIRGNMYYENSYALAVLSNYDANKTGLKELPMRNLQEILHGAVRFSNNPALCNVESIQWRDIVSSDFLSNMSMDFQNHLGSCQKCDPSCPNGSCWGAGEENCQKLTKIICAQQCSGRCRGKSPSDCCHNQCAAGCTGPRESDCLVCRKFRDEATCKDTCPPLMLYNPTTYQMDVNPEGKYSFGATCVKKCPRNYVVTDHGSCVRACGADSYEMEEDGVRKCKKCEGPCRKVCNGIGIGEFKDSLSINATNIKHFKNCTSISGDLHILPVAFRGDSFTHTPPLDPQELDILKTVKEITGFLLIQAWPENRTDLHAFENLEIIRGRTKQHGQFSLAVVSLNITSLGLRSLKEISDGDVIISGNKNLCYANTINWKKLFGTSGQKTKIISNRGENSCKATGQVCHALCSPEGCWGPEPRDCVSCRNVSRGRECVDKCNLLEGEPREFVENSECIQCHPECLPQAMNITCTGRGPDNCIQCAHYIDGPHCVKTCPAGVMGENNTLVWKYADAGHVCHLCHPNCTYGCTGPGLEGCPTNGPKIPSIATGMVGALLLLLVVALGIGLFMRRRHIVRKRTLRRLLQERELVEPLTPSGEAPNQALLRILKETEFKKIKVLGSGAFGTVYKGLWIPEGEKVKIPVAIKELREATSPKANKEILDEAYVMASVDNPHVCRLLGICLTSTVQLITQLMPFGCLLDYVREHKDNIGSQYLLNWCVQIAKGMNYLEDRRLVHRDLAARNVLVKTPQHVKITDFGLAKLLGAEEKEYHAEGGKVPIKWMALESILHRIYTHQSDVWSYGVTVWELMTFGSKPYDGIPASEISSILEKGERLPQPPICTIDVYMIMVKCWMIDADSRPKFRELIIEFSKMARDPQRYLVIQGDERMHLPSPTDSNFYRALMDEEDMDDVVDADEYLIPQQGFFSSPSTSRTPLLSSLSATSNNSTVACIDRNGLQSCPIKEDSFLQRYSSDPTGALTEDSIDDTFLPVPEYINQSVPKRPAGSVQNPVYHNQPLNPAPSRDPHYQDPHSTAVGNPEYLNTVQPTCVNSTFDSPAHWAQKGSHQISLDNPDYQQDFFPKEAKPNGIFKGSTAENAEYLRVAPQSSEFIGA

> <PDB ID(s) of Target Chain>
1IVO,1M14,1M17,1MOX,1XKK,1Z9I,2GS2,2GS6,2ITW,2ITX,2ITY,2J5E,2J5F,2J6M,2RF9,2RGP,3B2V,3BEL,3GOP,3POZ,3QWQ,3VJO,3W2O,3W2P,3W2Q,3W2R,3W2S,3W32,3W33,4G5J,4I23,4JQ7,4JQ8,4JR3,4JRV,4KRO,4LI5,4RJ4,4RJ5,4RJ6,4RJ7,4RJ8,4TKS,4UIP,4UV7,4WKQ,4WRG,4ZAU,5C8K,5C8M,5C8N,5CAL,5CAN,5CAO,5CAP,5CAQ,5CAS,5CAU,5CAV,5EDP,5EDQ,5EDR,5EM5,5EM6,5EM7,5EM8,5FED,5GNK,5HCX,5HCY,5HCZ,5HIB,5HIC,5UGB,5WB7,5WB8,5Y25,6S89,6S8A

> <UniProt (SwissProt) Recommended Name of Target Chain>
Epidermal growth factor receptor

> <UniProt (SwissProt) Entry Name of Target Chain>
EGFR_HUMAN

> <UniProt (SwissProt) Primary ID of Target Chain>
P00533

> <UniProt (SwissProt) Secondary ID(s) of Target Chain>
O00688,O00732,P06268,Q14225,Q68GS5,Q92795,Q9BZS2,Q9GZX1,Q9H2C9,Q9H3C9,Q9UMD7,Q9UMD8,Q9UMG5

> <UniProt (SwissProt) Alternative ID(s) of Target Chain>


> <UniProt (TrEMBL) Submitted Name of Target Chain>


> <UniProt (TrEMBL) Entry Name of Target Chain>


> <UniProt (TrEMBL) Primary ID of Target Chain>


> <UniProt (TrEMBL) Secondary ID(s) of Target Chain>


> <UniProt (TrEMBL) Alternative ID(s) of Target Chain>


> <training label>
4.53611

> <i_lp_mmshare_version>
54117

> <s_epik_input>
W0NIM11bQ0gyXU4oW0NIMl1bQ0gzXSlbQ0gyXVtDSDJdT2MoYyhbY0hdMSlPW0NIM10pW2NIXWMoYzEyKW5bY0hdbmMyW05IXWMzW2NIXVtjSF1jKFtjSF1bY0hdMylbTkhdQyg9TylbTkhdW0NIMl1bQ0gzXQ==

> <s_epik_cmdline>
J2VwaWtfcHl0aG9uJywgJy1waHQnLCAnMC4xJywgJy1waCcsICc3LjQnLCAnLXRuJywgJzgnLCAnLW1hJywgJzIwMCcsICctaW1hZScsICc8aW5maWxlLm1hZT4nLCAnLW9tYWUnLCAnPG91dGZpbGUubWFlPic=

> <r_lp_tautomer_probability>
0.999978000241998

> <r_epik_Ionization_Penalty>
  0.0610

> <r_epik_Ionization_Penalty_Charging>
  0.0604

> <r_epik_Ionization_Penalty_Neutral>
  0.0006

> <r_epik_State_Penalty>
  0.0524

> <r_epik_Charging_Adjusted_Penalty>
0.112841773912698

> <i_epik_Tot_Q>
1

> <i_epik_Tot_abs_Q>
1

> <i_f3d_flags>
0

> <s_lp_Force_Field>
OPLS_2005

> <r_lp_Energy>
34.188895

> <b_lp_Chiralities_Consistent>
1

> <s_lp_Variant>
BindingDB_50380447_mol_1-1

> <s_i_glide_gridfile>
struct_1_site_1

> <i_i_glide_lignum>
13

> <i_i_glide_rotatable_bonds>
13

> <r_i_docking_score>
-5.22992971653248

> <r_i_glide_ligand_efficiency>
-0.158482718682802

> <r_i_glide_ligand_efficiency_sa>
-0.508338760293689

> <r_i_glide_ligand_efficiency_ln>
-1.16310928982999

> <r_i_glide_gscore>
-5.28232971653248

> <r_i_glide_lipo>
-2.48174769539948

> <r_i_glide_hbond>
0

> <r_i_glide_metal>
0

> <r_i_glide_rewards>
-0.782181060448257

> <r_i_glide_evdw>
-45.0203590393066

> <r_i_glide_ecoul>
-4.29211235046387

> <r_i_glide_erotb>
0.878241569369808

> <r_i_glide_esite>
-0.00180772551963349

> <r_i_glide_emodel>
-30.305394414814

> <r_i_glide_energy>
-49.3124713897705

> <r_i_glide_einternal>
6.05591678619385

> <i_i_glide_confnum>
251

> <i_i_glide_posenum>
248

> <r_i_glide_eff_state_penalty>
0.0524

> <PMID>
20222760

> <r_glide_shape_similarity>
0.631287217140198

> <pH>
7.5

> <s_m_subgroup_title>
505 training

> <s_m_subgroupid>
pocket_pv

> <b_m_subgroup_collapsed>
0

$$$$
BindingDB_50223091_mol_1
                    3D
 Schrodinger Suite 2021-2.
 45 47  0  0  1  0            999 V2000
   26.0098    1.3136   52.9448 C   0  0  0  0  0  0
   26.9378    0.5407   53.6435 C   0  0  0  0  0  0
   26.4752   -0.3820   54.5857 C   0  0  0  0  0  0
   24.6277    1.0188   53.0458 C   0  0  0  0  0  0
   24.1804    0.0032   53.9190 C   0  0  0  0  0  0
   25.1061   -0.6469   54.7547 C   0  0  0  0  0  0
   24.6923   -1.5032   55.7045 N   0  0  0  0  0  0
   23.3983   -1.7732   55.7711 C   0  0  0  0  0  0
   22.4560   -1.2976   54.9800 N   0  0  0  0  0  0
   22.8380   -0.4004   54.0598 C   0  0  0  0  0  0
   21.8821    0.1499   53.2269 N   0  0  0  0  0  0
   20.5346   -0.1345   53.0483 C   0  0  0  0  0  0
   19.9337    0.6037   52.0332 C   0  0  0  0  0  0
   18.5752    0.4443   51.7414 C   0  0  0  0  0  0
   17.7895   -0.4682   52.4557 C   0  0  0  0  0  0
   18.3978   -1.2309   53.4655 C   0  0  0  0  0  0
   19.7620   -1.0686   53.7709 C   0  0  0  0  0  0
   18.0526    1.2374   50.6619 C   0  0  0  0  0  0
   17.9728    1.9665   49.6923 C   0  0  0  0  0  0
   26.5397    2.3049   52.1650 O   0  0  0  0  0  0
   25.6737    3.3536   51.7721 C   0  0  0  0  0  0
   28.2731    0.7345   53.4222 O   0  0  0  0  0  0
   29.0308   -0.4628   53.3302 C   0  0  0  0  0  0
   18.2862    2.8244   48.5508 C   0  0  0  0  0  0
   19.7422    2.6084   48.1226 C   0  0  0  0  0  0
   20.6271    2.8543   49.1982 O   0  0  0  0  0  0
   27.1930   -0.8660   55.2178 H   0  0  0  0  0  0
   23.9190    1.5733   52.4526 H   0  0  0  0  0  0
   23.0884   -2.4650   56.5391 H   0  0  0  0  0  0
   22.2523    0.8273   52.5843 H   0  0  0  0  0  0
   20.5209    1.3102   51.4624 H   0  0  0  0  0  0
   16.7399   -0.5931   52.2321 H   0  0  0  0  0  0
   17.8073   -1.9411   54.0255 H   0  0  0  0  0  0
   20.1528   -1.6758   54.5680 H   0  0  0  0  0  0
   26.2641    4.1497   51.3201 H   0  0  0  0  0  0
   24.9533    3.0169   51.0244 H   0  0  0  0  0  0
   25.1418    3.7812   52.6235 H   0  0  0  0  0  0
   30.0355   -0.2223   52.9825 H   0  0  0  0  0  0
   29.1487   -0.9646   54.2885 H   0  0  0  0  0  0
   28.5922   -1.1644   52.6171 H   0  0  0  0  0  0
   18.0980    3.8604   48.8332 H   0  0  0  0  0  0
   17.6072    2.5785   47.7312 H   0  0  0  0  0  0
   19.9974    3.2654   47.2914 H   0  0  0  0  0  0
   19.8944    1.5833   47.7782 H   0  0  0  0  0  0
   20.2657    3.5653   49.7075 H   0  0  0  0  0  0
  1  2  2  0  0  0
  1  4  1  0  0  0
  1 20  1  0  0  0
  2  3  1  0  0  0
  2 22  1  0  0  0
  3  6  2  0  0  0
  3 27  1  0  0  0
  4  5  2  0  0  0
  4 28  1  0  0  0
  5  6  1  0  0  0
  5 10  1  0  0  0
  6  7  1  0  0  0
  7  8  2  0  0  0
  8  9  1  0  0  0
  8 29  1  0  0  0
  9 10  2  0  0  0
 10 11  1  0  0  0
 11 12  1  0  0  0
 11 30  1  0  0  0
 12 13  2  0  0  0
 12 17  1  0  0  0
 13 14  1  0  0  0
 13 31  1  0  0  0
 14 15  2  0  0  0
 14 18  1  0  0  0
 15 16  1  0  0  0
 15 32  1  0  0  0
 16 17  2  0  0  0
 16 33  1  0  0  0
 17 34  1  0  0  0
 18 19  3  0  0  0
 19 24  1  0  0  0
 20 21  1  0  0  0
 21 35  1  0  0  0
 21 36  1  0  0  0
 21 37  1  0  0  0
 22 23  1  0  0  0
 23 38  1  0  0  0
 23 39  1  0  0  0
 23 40  1  0  0  0
 24 25  1  0  0  0
 24 41  1  0  0  0
 24 42  1  0  0  0
 25 26  1  0  0  0
 25 43  1  0  0  0
 25 44  1  0  0  0
 26 45  1  0  0  0
M  END
> <s_m_entry_id>
469

> <s_m_entry_name>
pocket_pv.280

> <s_m_Source_Path>
/home/bortolaa/Project/GT/mario-master/docking/set505protein_struct_1_site_1_set505ligs_train

> <s_m_Source_File>
pocket_pv.maegz

> <i_m_Source_File_Index>
280

> <From>
www.bindingDB.org

> <BindingDB Reactant_set_id>
50401543

> <Ligand InChI>
InChI=1S/C20H19N3O3/c1-25-18-11-16-17(12-19(18)26-2)21-13-22-20(16)23-15-8-5-7-14(10-15)6-3-4-9-24/h5,7-8,10-13,24H,4,9H2,1-2H3,(H,21,22,23)

> <Ligand InChI Key>
ZGYIOLOGUKKRQX-UHFFFAOYSA-N

> <BindingDB MonomerID>
50223091

> <BindingDB Ligand Name>
4-(3-(6,7-dimethoxyquinazolin-4-ylamino)phenyl)but-3-yn-1-ol::CHEMBL248674

> <Target Name Assigned by Curator or DataSource>
Epidermal growth factor receptor

> <Target Source Organism According to Curator or DataSource>
Homo sapiens

> <Ki (nM)>


> <Kd (nM)>


> <EC50 (nM)>


> <kon (M-1-s-1)>


> <koff (s-1)>


> <pH>


> <Temp C>


> <Curation/DataSource>
ChEMBL

> <Article DOI>
10.1016/j.bmcl.2007.08.061

> <PubChem AID>


> <Patent Number>


> <Authors>
Liu, LT; Yuan, TT; Liu, HH; Chen, SF; Wu, YT

> <Institution>
Development Center for Biotechnology

> <Link to Ligand in BindingDB>
http://www.bindingdb.org/bind/chemsearch/marvin/MolStructure.jsp?monomerid=50223091

> <Link to Ligand-Target Pair in BindingDB>
http://www.bindingdb.org/jsp/dbsearch/PrimarySearch_ki.jsp?energyterm=kJ/mole&tag=r21&monomerid=50223091&enzyme=Epidermal+growth+factor+receptor&column=ki&startPg=0&Increment=50&submit=Search

> <Ligand HET ID in PDB>


> <PDB ID(s) for Ligand-Target Complex>


> <PubChem CID>
44442152

> <PubChem SID>
104095255

> <ChEBI ID of Ligand>


> <ChEMBL ID of Ligand>
CHEMBL248674

> <DrugBank ID of Ligand>


> <IUPHAR_GRAC ID of Ligand>


> <KEGG ID of Ligand>


> <ZINC ID of Ligand>
ZINC28951167

> <Number of Protein Chains in Target (>
1

> <BindingDB Target Chain Sequence>
MRPSGTAGAALLALLAALCPASRALEEKKVCQGTSNKLTQLGTFEDHFLSLQRMFNNCEVVLGNLEITYVQRNYDLSFLKTIQEVAGYVLIALNTVERIPLENLQIIRGNMYYENSYALAVLSNYDANKTGLKELPMRNLQEILHGAVRFSNNPALCNVESIQWRDIVSSDFLSNMSMDFQNHLGSCQKCDPSCPNGSCWGAGEENCQKLTKIICAQQCSGRCRGKSPSDCCHNQCAAGCTGPRESDCLVCRKFRDEATCKDTCPPLMLYNPTTYQMDVNPEGKYSFGATCVKKCPRNYVVTDHGSCVRACGADSYEMEEDGVRKCKKCEGPCRKVCNGIGIGEFKDSLSINATNIKHFKNCTSISGDLHILPVAFRGDSFTHTPPLDPQELDILKTVKEITGFLLIQAWPENRTDLHAFENLEIIRGRTKQHGQFSLAVVSLNITSLGLRSLKEISDGDVIISGNKNLCYANTINWKKLFGTSGQKTKIISNRGENSCKATGQVCHALCSPEGCWGPEPRDCVSCRNVSRGRECVDKCNLLEGEPREFVENSECIQCHPECLPQAMNITCTGRGPDNCIQCAHYIDGPHCVKTCPAGVMGENNTLVWKYADAGHVCHLCHPNCTYGCTGPGLEGCPTNGPKIPSIATGMVGALLLLLVVALGIGLFMRRRHIVRKRTLRRLLQERELVEPLTPSGEAPNQALLRILKETEFKKIKVLGSGAFGTVYKGLWIPEGEKVKIPVAIKELREATSPKANKEILDEAYVMASVDNPHVCRLLGICLTSTVQLITQLMPFGCLLDYVREHKDNIGSQYLLNWCVQIAKGMNYLEDRRLVHRDLAARNVLVKTPQHVKITDFGLAKLLGAEEKEYHAEGGKVPIKWMALESILHRIYTHQSDVWSYGVTVWELMTFGSKPYDGIPASEISSILEKGERLPQPPICTIDVYMIMVKCWMIDADSRPKFRELIIEFSKMARDPQRYLVIQGDERMHLPSPTDSNFYRALMDEEDMDDVVDADEYLIPQQGFFSSPSTSRTPLLSSLSATSNNSTVACIDRNGLQSCPIKEDSFLQRYSSDPTGALTEDSIDDTFLPVPEYINQSVPKRPAGSVQNPVYHNQPLNPAPSRDPHYQDPHSTAVGNPEYLNTVQPTCVNSTFDSPAHWAQKGSHQISLDNPDYQQDFFPKEAKPNGIFKGSTAENAEYLRVAPQSSEFIGA

> <PDB ID(s) of Target Chain>
1IVO,1M14,1M17,1MOX,1XKK,1Z9I,2GS2,2GS6,2ITW,2ITX,2ITY,2J5E,2J5F,2J6M,2RF9,2RGP,3B2V,3BEL,3GOP,3POZ,3QWQ,3VJO,3W2O,3W2P,3W2Q,3W2R,3W2S,3W32,3W33,4G5J,4I23,4JQ7,4JQ8,4JR3,4JRV,4KRO,4LI5,4RJ4,4RJ5,4RJ6,4RJ7,4RJ8,4TKS,4UIP,4UV7,4WKQ,4WRG,4ZAU,5C8K,5C8M,5C8N,5CAL,5CAN,5CAO,5CAP,5CAQ,5CAS,5CAU,5CAV,5EDP,5EDQ,5EDR,5EM5,5EM6,5EM7,5EM8,5FED,5GNK,5HCX,5HCY,5HCZ,5HIB,5HIC,5UGB,5WB7,5WB8,5Y25,6S89,6S8A

> <UniProt (SwissProt) Recommended Name of Target Chain>
Epidermal growth factor receptor

> <UniProt (SwissProt) Entry Name of Target Chain>
EGFR_HUMAN

> <UniProt (SwissProt) Primary ID of Target Chain>
P00533

> <UniProt (SwissProt) Secondary ID(s) of Target Chain>
O00688,O00732,P06268,Q14225,Q68GS5,Q92795,Q9BZS2,Q9GZX1,Q9H2C9,Q9H3C9,Q9UMD7,Q9UMD8,Q9UMG5

> <UniProt (SwissProt) Alternative ID(s) of Target Chain>


> <UniProt (TrEMBL) Submitted Name of Target Chain>


> <UniProt (TrEMBL) Entry Name of Target Chain>


> <UniProt (TrEMBL) Primary ID of Target Chain>


> <UniProt (TrEMBL) Secondary ID(s) of Target Chain>


> <UniProt (TrEMBL) Alternative ID(s) of Target Chain>


> <training label>
6.39577

> <i_lp_mmshare_version>
54117

> <s_epik_input>
W0NIM11PYyhbY0hdMSljKE9bQ0gzXSlbY0hdYyhjMTIpbltjSF1uYzJbTkhdYzNbY0hdYyhbY0hdW2NIXVtjSF0zKUMjQ1tDSDJdW0NIMl1bT0hd

> <s_epik_cmdline>
J2VwaWtfcHl0aG9uJywgJy1waHQnLCAnMC4xJywgJy1waCcsICc3LjQnLCAnLXRuJywgJzgnLCAnLW1hJywgJzIwMCcsICctaW1hZScsICc8aW5maWxlLm1hZT4nLCAnLW9tYWUnLCAnPG91dGZpbGUubWFlPic=

> <r_lp_tautomer_probability>
1

> <r_epik_Ionization_Penalty>
  0.0006

> <r_epik_Ionization_Penalty_Charging>
  0.0000

> <r_epik_Ionization_Penalty_Neutral>
  0.0006

> <r_epik_State_Penalty>
  0.0000

> <r_epik_Charging_Adjusted_Penalty>
0

> <i_epik_Tot_Q>
0

> <i_epik_Tot_abs_Q>
0

> <i_f3d_flags>
0

> <s_lp_Force_Field>
OPLS_2005

> <r_lp_Energy>
20.397257

> <b_lp_Chiralities_Consistent>
1

> <s_lp_Variant>
BindingDB_50223091_mol_1-1

> <s_i_glide_gridfile>
struct_1_site_1

> <i_i_glide_lignum>
111

> <i_i_glide_rotatable_bonds>
8

> <r_i_docking_score>
-5.06808209293206

> <r_i_glide_ligand_efficiency>
-0.194926234343541

> <r_i_glide_ligand_efficiency_sa>
-0.577468202245045

> <r_i_glide_ligand_efficiency_ln>
-1.19022244979137

> <r_i_glide_gscore>
-5.06808209293206

> <r_i_glide_lipo>
-2.70252594944552

> <r_i_glide_hbond>
0

> <r_i_glide_metal>
0

> <r_i_glide_rewards>
-1.21779504487311

> <r_i_glide_evdw>
-38.7444229125977

> <r_i_glide_ecoul>
0.0615973472595215

> <r_i_glide_erotb>
0.780220444927524

> <r_i_glide_esite>
0

> <r_i_glide_emodel>
-25.676179283027

> <r_i_glide_energy>
-38.6828255653381

> <r_i_glide_einternal>
2.30734872817993

> <i_i_glide_confnum>
2

> <i_i_glide_posenum>
72

> <r_i_glide_eff_state_penalty>
0

> <IC50 (nM)>
402

> <PMID>
17889528

> <r_glide_shape_similarity>
0.735939919948578

> <s_m_subgroup_title>
505 training

> <s_m_subgroupid>
pocket_pv

> <b_m_subgroup_collapsed>
0

$$$$
BindingDB_50171919_mol_1
                    3D
 Schrodinger Suite 2021-2.
 43 44  0  0  1  0            999 V2000
   20.9745   -0.3818   53.2630 C   0  0  0  0  0  0
   21.9662    0.5011   53.2647 N   0  0  0  0  0  0
   27.6231    0.0945   53.5611 C   0  0  0  0  0  0
   19.6732    0.1886   52.6613 C   0  0  1  0  0  0
   21.0471   -1.4828   53.7912 O   0  0  0  0  0  0
   26.1437    0.2127   53.6012 C   0  0  0  0  0  0
   28.1842   -0.9876   53.4098 O   0  0  0  0  0  0
   28.2497    1.2568   53.7194 N   0  0  0  0  0  0
   19.8597    1.0137   51.3892 C   0  0  0  0  0  0
   23.3376    0.3436   53.4879 C   0  0  0  0  0  0
   25.3536   -0.8177   54.1514 C   0  0  0  0  0  0
   25.5185    1.3295   53.0328 C   0  0  0  0  0  0
   18.4326   -0.7485   52.6000 C   0  0  0  0  0  0
   24.1251    1.3866   52.9798 C   0  0  0  0  0  0
   23.9467   -0.7548   54.1192 C   0  0  0  0  0  0
   29.4890    1.2855   53.0849 O   0  0  0  0  0  0
   20.7563    0.6432   50.3735 C   0  0  0  0  0  0
   19.0713    2.1653   51.1989 C   0  0  0  0  0  0
   17.9997   -1.2907   53.9537 C   0  0  0  0  0  0
   17.1830   -0.1451   51.9263 C   0  0  0  0  0  0
   20.8235    1.3853   49.1794 C   0  0  0  0  0  0
   19.1221    2.8954   49.9987 C   0  0  0  0  0  0
   20.0011    2.5054   48.9861 C   0  0  0  0  0  0
   21.7131    1.3752   52.8405 H   0  0  0  0  0  0
   19.4895    0.9789   53.3723 H   0  0  0  0  0  0
   27.7876    2.1486   53.6363 H   0  0  0  0  0  0
   25.8367   -1.6824   54.5791 H   0  0  0  0  0  0
   26.0821    2.1377   52.5849 H   0  0  0  0  0  0
   18.6909   -1.6095   51.9883 H   0  0  0  0  0  0
   23.6591    2.2381   52.5008 H   0  0  0  0  0  0
   23.3760   -1.5748   54.5279 H   0  0  0  0  0  0
   29.9503    2.0369   53.4380 H   0  0  0  0  0  0
   21.3716   -0.2399   50.4745 H   0  0  0  0  0  0
   18.3722    2.4764   51.9613 H   0  0  0  0  0  0
   17.6618   -0.4757   54.5747 H   0  0  0  0  0  0
   17.1616   -1.9794   53.8559 H   0  0  0  0  0  0
   18.7723   -1.8387   54.4876 H   0  0  0  0  0  0
   16.8380    0.7510   52.4377 H   0  0  0  0  0  0
   17.3588    0.0901   50.8774 H   0  0  0  0  0  0
   16.3561   -0.8569   51.9381 H   0  0  0  0  0  0
   21.4905    1.0695   48.3912 H   0  0  0  0  0  0
   18.4882    3.7584   49.8632 H   0  0  0  0  0  0
   20.0485    3.0616   48.0623 H   0  0  0  0  0  0
  1  2  1  0  0  0
  1  4  1  0  0  0
  1  5  2  0  0  0
  2 10  1  0  0  0
  2 24  1  0  0  0
  3  6  1  0  0  0
  3  7  2  0  0  0
  3  8  1  0  0  0
  4  9  1  0  0  0
  4 13  1  0  0  0
  4 25  1  0  0  0
  6 11  1  0  0  0
  6 12  2  0  0  0
  8 16  1  0  0  0
  8 26  1  0  0  0
  9 17  1  0  0  0
  9 18  2  0  0  0
 10 14  2  0  0  0
 10 15  1  0  0  0
 11 15  2  0  0  0
 11 27  1  0  0  0
 12 14  1  0  0  0
 12 28  1  0  0  0
 13 19  1  0  0  0
 13 20  1  0  0  0
 13 29  1  0  0  0
 14 30  1  0  0  0
 15 31  1  0  0  0
 16 32  1  0  0  0
 17 21  2  0  0  0
 17 33  1  0  0  0
 18 22  1  0  0  0
 18 34  1  0  0  0
 19 35  1  0  0  0
 19 36  1  0  0  0
 19 37  1  0  0  0
 20 38  1  0  0  0
 20 39  1  0  0  0
 20 40  1  0  0  0
 21 23  1  0  0  0
 21 41  1  0  0  0
 22 23  2  0  0  0
 22 42  1  0  0  0
 23 43  1  0  0  0
M  END
> <s_m_entry_id>
470

> <s_m_entry_name>
pocket_pv.281

> <s_m_Source_Path>
/home/bortolaa/Project/GT/mario-master/docking/set505protein_struct_1_site_1_set505ligs_train

> <s_m_Source_File>
pocket_pv.maegz

> <i_m_Source_File_Index>
281

> <From>
www.bindingDB.org

> <BindingDB Reactant_set_id>
50497613

> <Ligand InChI>
InChI=1S/C20H17ClFN3O4/c21-13-7-11(1-2-14(13)22)25-20-17-15(23-10-24-20)8-16(29-12-3-4-26-9-12)18-19(17)28-6-5-27-18/h1-2,7-8,10,12H,3-6,9H2,(H,23,24,25)

> <Ligand InChI Key>
DKDVAKLTCAGCOZ-UHFFFAOYSA-N

> <BindingDB MonomerID>
50171919

> <BindingDB Ligand Name>
CHEMBL3805782

> <Target Name Assigned by Curator or DataSource>
Epidermal growth factor receptor

> <Target Source Organism According to Curator or DataSource>


> <Ki (nM)>


> <Kd (nM)>


> <EC50 (nM)>


> <kon (M-1-s-1)>


> <koff (s-1)>


> <pH>


> <Temp C>


> <Curation/DataSource>
ChEMBL

> <Article DOI>
10.1016/j.bmc.2016.01.003

> <PubChem AID>


> <Patent Number>


> <Authors>
Qin, X; Li, Z; Yang, L; Liu, P; Hu, L; Zeng, C; Pan, Z

> <Institution>
Beijing University of Technology

> <Link to Ligand in BindingDB>
http://www.bindingdb.org/bind/chemsearch/marvin/MolStructure.jsp?monomerid=50171919

> <Link to Ligand-Target Pair in BindingDB>
http://www.bindingdb.org/jsp/dbsearch/PrimarySearch_ki.jsp?energyterm=kJ/mole&tag=r21&monomerid=50171919&enzyme=Epidermal+growth+factor+receptor&column=ki&startPg=0&Increment=50&submit=Search

> <Ligand HET ID in PDB>


> <PDB ID(s) for Ligand-Target Complex>


> <PubChem CID>
127048860

> <PubChem SID>
104058095

> <ChEBI ID of Ligand>


> <ChEMBL ID of Ligand>
CHEMBL3805782

> <DrugBank ID of Ligand>


> <IUPHAR_GRAC ID of Ligand>


> <KEGG ID of Ligand>


> <ZINC ID of Ligand>
ZINC13671721

> <Number of Protein Chains in Target (>
4

> <BindingDB Target Chain Sequence>
MRANDALQVLGLLFSLARGSEVGNSQAVCPGTLNGLSVTGDAENQYQTLYKLYERCEVVMGNLEIVLTGHNADLSFLQWIREVTGYVLVAMNEFSTLPLPNLRVVRGTQVYDGKFAIFVMLNYNTNSSHALRQLRLTQLTEILSGGVYIEKNDKLCHMDTIDWRDIVRDRDAEIVVKDNGRSCPPCHEVCKGRCWGPGSEDCQTLTKTICAPQCNGHCFGPNPNQCCHDECAGGCSGPQDTDCFACRHFNDSGACVPRCPQPLVYNKLTFQLEPNPHTKYQYGGVCVASCPHNFVVDQTSCVRACPPDKMEVDKNGLKMCEPCGGLCPKACEGTGSGSRFQTVDSSNIDGFVNCTKILGNLDFLITGLNGDPWHKIPALDPEKLNVFRTVREITGYLNIQSWPPHMHNFSVFSNLTTIGGRSLYNRGFSLLIMKNLNVTSLGFRSLKEISAGRIYISANRQLCYHHSLNWTKVLRGPTEERLDIKHNRPRRDCVAEGKVCDPLCSSGGCWGPGPGQCLSCRNYSRGGVCVTHCNFLNGEPREFAHEAECFSCHPECQPMEGTATCNGSGSDTCAQCAHFRDGPHCVSSCPHGVLGAKGPIYKYPDVQNECRPCHENCTQGCKGPELQDCLGQTLVLIGKTHLTMALTVIAGLVVIFMMLGGTFLYWRGRRIQNKRAMRRYLERGESIEPLDPSEKANKVLARIFKETELRKLKVLGSGVFGTVHKGVWIPEGESIKIPVCIKVIEDKSGRQSFQAVTDHMLAIGSLDHAHIVRLLGLCPGSSLQLVTQYLPLGSLLDHVRQHRGALGPQLLLNWGVQIAKGMYYLEEHGMVHRNLAARNVLLKSPSQVQVADFGVADLLPPDDKQLLYSEAKTPIKWMALESIHFGKYTHQSDVWSYGVTVWELMTFGAEPYAGLRLAEVPDLLEKGERLAQPQICTIDVYMVMVKCWMIDENIRPTFKELANEFTRMARDPPRYLVIKRESGPGIAPGPEPHGLTNKKLEEVELEPELDLDLDLEAEEDNLATTTLGSALSLPVGTLNRPRGSQSLLSPSSGYMPMNQGNLGESCQESAVSGSSERCPRPVSLHPMPRGCLASESSEGHVTGSEAELQEKVSMCRSRSRSRSPRPRGDSAYHSQRHSLLTPVTPLSPPGLEEEDVNGYVMPDTHLKGTPSSREGTLSSVGLSSVLGTEEEDEDEEYEYMNRRRRHSPPHPPRPSSLEELGYEYMDVGSDLSASLGSTQSCPLHPVPIMPTAGTTPDEDYEYMNRQRDGGGPGGDYAAMGACPASEQGYEEMRAFQGPGHQAPHVHYARLKTLRSLEATDSAFDNPDYWHSRLFPKANAQRT

> <PDB ID(s) of Target Chain>
3KEX,4RIX,4RIY,5CUS,5O4O,5O7P,6OP9

> <UniProt (SwissProt) Recommended Name of Target Chain>
Receptor tyrosine-protein kinase erbB-3

> <UniProt (SwissProt) Entry Name of Target Chain>
ERBB3_HUMAN

> <UniProt (SwissProt) Primary ID of Target Chain>
P21860

> <UniProt (SwissProt) Secondary ID(s) of Target Chain>
A8K6L6,B4DIK7,B4DV32,E9PDT8,Q9BUD7

> <UniProt (SwissProt) Alternative ID(s) of Target Chain>


> <UniProt (TrEMBL) Submitted Name of Target Chain>


> <UniProt (TrEMBL) Entry Name of Target Chain>


> <UniProt (TrEMBL) Primary ID of Target Chain>


> <UniProt (TrEMBL) Secondary ID(s) of Target Chain>


> <UniProt (TrEMBL) Alternative ID(s) of Target Chain>


> <training label>
6.82102

> <i_lp_mmshare_version>
54117

> <s_epik_input>
W2NIXTFbY0hdW2NIXVtjSF1bY0hdYzFbQ0BASF0oW0NIXShbQ0gzXSlbQ0gzXSlDKD1PKVtOSF1jKFtjSF1bY0hdMilbY0hdW2NIXWMyQyg9TylbTkhdW09IXQ==

> <s_epik_cmdline>
J2VwaWtfcHl0aG9uJywgJy1waHQnLCAnMC4xJywgJy1waCcsICc3LjQnLCAnLXRuJywgJzgnLCAnLW1hJywgJzIwMCcsICctaW1hZScsICc8aW5maWxlLm1hZT4nLCAnLW9tYWUnLCAnPG91dGZpbGUubWFlPic=

> <r_epik_Ionization_Penalty>
  0.0260

> <r_epik_Ionization_Penalty_Charging>
  0.0000

> <r_epik_Ionization_Penalty_Neutral>
  0.0260

> <r_epik_State_Penalty>
  0.0212

> <r_epik_Charging_Adjusted_Penalty>
0.0212001956575316

> <i_epik_Tot_Q>
0

> <i_epik_Tot_abs_Q>
0

> <i_f3d_flags>
0

> <s_lp_Force_Field>
OPLS_2005

> <r_lp_Energy>
30.304714

> <b_lp_Chiralities_Consistent>
1

> <s_lp_Variant>
BindingDB_50171919_mol_1-1

> <s_i_glide_gridfile>
struct_1_site_1

> <i_i_glide_lignum>
139

> <i_i_glide_rotatable_bonds>
8

> <r_i_docking_score>
-5.04366922105197

> <r_i_glide_ligand_efficiency>
-0.219289966132694

> <r_i_glide_ligand_efficiency_sa>
-0.62363149304574

> <r_i_glide_ligand_efficiency_ln>
-1.21960495111436

> <r_i_glide_gscore>
-5.06486922105197

> <r_i_glide_lipo>
-2.20790780856694

> <r_i_glide_hbond>
0

> <r_i_glide_metal>
0

> <r_i_glide_rewards>
-1.93081633042487

> <r_i_glide_evdw>
-33.566478729248

> <r_i_glide_ecoul>
-1.32571220397949

> <r_i_glide_erotb>
0.951035684999165

> <r_i_glide_esite>
0

> <r_i_glide_emodel>
-14.0240059106911

> <r_i_glide_energy>
-34.8921909332275

> <r_i_glide_einternal>
6.25625133514404

> <i_i_glide_confnum>
16

> <i_i_glide_posenum>
45

> <r_i_glide_eff_state_penalty>
0.0212

> <IC50 (nM)>
151

> <PMID>
27234887

> <s_epik_Chemistry_Notes>
This compound has a N-S or N-O group and may undergo hydrolysis at high or low pH.

> <r_glide_shape_similarity>
0.697856664657593

> <s_m_subgroup_title>
505 training

> <s_m_subgroupid>
pocket_pv

> <b_m_subgroup_collapsed>
0

$$$$
BindingDB_50171908_mol_1
                    3D
 Schrodinger Suite 2021-2.
 43 44  0  0  1  0            999 V2000
   20.9745   -0.3818   53.2630 C   0  0  0  0  0  0
   21.9662    0.5011   53.2647 N   0  0  0  0  0  0
   27.6231    0.0945   53.5611 C   0  0  0  0  0  0
   19.6732    0.1886   52.6613 C   0  0  1  0  0  0
   21.0471   -1.4828   53.7912 O   0  0  0  0  0  0
   26.1437    0.2127   53.6012 C   0  0  0  0  0  0
   28.1842   -0.9876   53.4098 O   0  0  0  0  0  0
   28.2497    1.2568   53.7194 N   0  0  0  0  0  0
   19.8597    1.0137   51.3892 C   0  0  0  0  0  0
   23.3376    0.3436   53.4879 C   0  0  0  0  0  0
   25.3536   -0.8177   54.1514 C   0  0  0  0  0  0
   25.5185    1.3295   53.0328 C   0  0  0  0  0  0
   18.4326   -0.7485   52.6000 C   0  0  0  0  0  0
   24.1251    1.3866   52.9798 C   0  0  0  0  0  0
   23.9467   -0.7548   54.1192 C   0  0  0  0  0  0
   29.4890    1.2855   53.0849 O   0  0  0  0  0  0
   20.7563    0.6432   50.3735 C   0  0  0  0  0  0
   19.0713    2.1653   51.1989 C   0  0  0  0  0  0
   17.9997   -1.2907   53.9537 C   0  0  0  0  0  0
   17.1830   -0.1451   51.9263 C   0  0  0  0  0  0
   20.8235    1.3853   49.1794 C   0  0  0  0  0  0
   19.1221    2.8954   49.9987 C   0  0  0  0  0  0
   20.0011    2.5054   48.9861 C   0  0  0  0  0  0
   21.7131    1.3752   52.8405 H   0  0  0  0  0  0
   19.4895    0.9789   53.3723 H   0  0  0  0  0  0
   27.7876    2.1486   53.6363 H   0  0  0  0  0  0
   25.8367   -1.6824   54.5791 H   0  0  0  0  0  0
   26.0821    2.1377   52.5849 H   0  0  0  0  0  0
   18.6909   -1.6095   51.9883 H   0  0  0  0  0  0
   23.6591    2.2381   52.5008 H   0  0  0  0  0  0
   23.3760   -1.5748   54.5279 H   0  0  0  0  0  0
   29.9503    2.0369   53.4380 H   0  0  0  0  0  0
   21.3716   -0.2399   50.4745 H   0  0  0  0  0  0
   18.3722    2.4764   51.9613 H   0  0  0  0  0  0
   17.6618   -0.4757   54.5747 H   0  0  0  0  0  0
   17.1616   -1.9794   53.8559 H   0  0  0  0  0  0
   18.7723   -1.8387   54.4876 H   0  0  0  0  0  0
   16.8380    0.7510   52.4377 H   0  0  0  0  0  0
   17.3588    0.0901   50.8774 H   0  0  0  0  0  0
   16.3561   -0.8569   51.9381 H   0  0  0  0  0  0
   21.4905    1.0695   48.3912 H   0  0  0  0  0  0
   18.4882    3.7584   49.8632 H   0  0  0  0  0  0
   20.0485    3.0616   48.0623 H   0  0  0  0  0  0
  1  2  1  0  0  0
  1  4  1  0  0  0
  1  5  2  0  0  0
  2 10  1  0  0  0
  2 24  1  0  0  0
  3  6  1  0  0  0
  3  7  2  0  0  0
  3  8  1  0  0  0
  4  9  1  0  0  0
  4 13  1  0  0  0
  4 25  1  0  0  0
  6 11  1  0  0  0
  6 12  2  0  0  0
  8 16  1  0  0  0
  8 26  1  0  0  0
  9 17  1  0  0  0
  9 18  2  0  0  0
 10 14  2  0  0  0
 10 15  1  0  0  0
 11 15  2  0  0  0
 11 27  1  0  0  0
 12 14  1  0  0  0
 12 28  1  0  0  0
 13 19  1  0  0  0
 13 20  1  0  0  0
 13 29  1  0  0  0
 14 30  1  0  0  0
 15 31  1  0  0  0
 16 32  1  0  0  0
 17 21  2  0  0  0
 17 33  1  0  0  0
 18 22  1  0  0  0
 18 34  1  0  0  0
 19 35  1  0  0  0
 19 36  1  0  0  0
 19 37  1  0  0  0
 20 38  1  0  0  0
 20 39  1  0  0  0
 20 40  1  0  0  0
 21 23  1  0  0  0
 21 41  1  0  0  0
 22 23  2  0  0  0
 22 42  1  0  0  0
 23 43  1  0  0  0
M  END
> <s_m_entry_id>
471

> <s_m_entry_name>
pocket_pv.282

> <s_m_Source_Path>
/home/bortolaa/Project/GT/mario-master/docking/set505protein_struct_1_site_1_set505ligs_train

> <s_m_Source_File>
pocket_pv.maegz

> <i_m_Source_File_Index>
282

> <From>
www.bindingDB.org

> <BindingDB Reactant_set_id>
50497528

> <Ligand InChI>
InChI=1S/C18H16N4O5/c1-2-25-14-9-13-15(17-16(14)26-6-7-27-17)18(20-10-19-13)21-11-4-3-5-12(8-11)22(23)24/h3-5,8-10H,2,6-7H2,1H3,(H,19,20,21)

> <Ligand InChI Key>
WUAZUOXCWOXJJP-UHFFFAOYSA-N

> <BindingDB MonomerID>
50171908

> <BindingDB Ligand Name>
CHEMBL3805238::US10106508, Compound I-38

> <Target Name Assigned by Curator or DataSource>
Epidermal growth factor receptor

> <Target Source Organism According to Curator or DataSource>


> <Ki (nM)>


> <Kd (nM)>


> <EC50 (nM)>


> <kon (M-1-s-1)>


> <koff (s-1)>


> <pH>


> <Temp C>


> <Curation/DataSource>
ChEMBL

> <Article DOI>
10.1016/j.bmc.2016.01.003

> <PubChem AID>


> <Patent Number>


> <Authors>
Qin, X; Li, Z; Yang, L; Liu, P; Hu, L; Zeng, C; Pan, Z

> <Institution>
Beijing University of Technology

> <Link to Ligand in BindingDB>
http://www.bindingdb.org/bind/chemsearch/marvin/MolStructure.jsp?monomerid=50171908

> <Link to Ligand-Target Pair in BindingDB>
http://www.bindingdb.org/jsp/dbsearch/PrimarySearch_ki.jsp?energyterm=kJ/mole&tag=r21&monomerid=50171908&enzyme=Epidermal+growth+factor+receptor&column=ki&startPg=0&Increment=50&submit=Search

> <Ligand HET ID in PDB>


> <PDB ID(s) for Ligand-Target Complex>


> <PubChem CID>
122417864

> <PubChem SID>
104058084

> <ChEBI ID of Ligand>


> <ChEMBL ID of Ligand>
CHEMBL3805238

> <DrugBank ID of Ligand>


> <IUPHAR_GRAC ID of Ligand>


> <KEGG ID of Ligand>


> <ZINC ID of Ligand>
ZINC13671719

> <Number of Protein Chains in Target (>
4

> <BindingDB Target Chain Sequence>
MRANDALQVLGLLFSLARGSEVGNSQAVCPGTLNGLSVTGDAENQYQTLYKLYERCEVVMGNLEIVLTGHNADLSFLQWIREVTGYVLVAMNEFSTLPLPNLRVVRGTQVYDGKFAIFVMLNYNTNSSHALRQLRLTQLTEILSGGVYIEKNDKLCHMDTIDWRDIVRDRDAEIVVKDNGRSCPPCHEVCKGRCWGPGSEDCQTLTKTICAPQCNGHCFGPNPNQCCHDECAGGCSGPQDTDCFACRHFNDSGACVPRCPQPLVYNKLTFQLEPNPHTKYQYGGVCVASCPHNFVVDQTSCVRACPPDKMEVDKNGLKMCEPCGGLCPKACEGTGSGSRFQTVDSSNIDGFVNCTKILGNLDFLITGLNGDPWHKIPALDPEKLNVFRTVREITGYLNIQSWPPHMHNFSVFSNLTTIGGRSLYNRGFSLLIMKNLNVTSLGFRSLKEISAGRIYISANRQLCYHHSLNWTKVLRGPTEERLDIKHNRPRRDCVAEGKVCDPLCSSGGCWGPGPGQCLSCRNYSRGGVCVTHCNFLNGEPREFAHEAECFSCHPECQPMEGTATCNGSGSDTCAQCAHFRDGPHCVSSCPHGVLGAKGPIYKYPDVQNECRPCHENCTQGCKGPELQDCLGQTLVLIGKTHLTMALTVIAGLVVIFMMLGGTFLYWRGRRIQNKRAMRRYLERGESIEPLDPSEKANKVLARIFKETELRKLKVLGSGVFGTVHKGVWIPEGESIKIPVCIKVIEDKSGRQSFQAVTDHMLAIGSLDHAHIVRLLGLCPGSSLQLVTQYLPLGSLLDHVRQHRGALGPQLLLNWGVQIAKGMYYLEEHGMVHRNLAARNVLLKSPSQVQVADFGVADLLPPDDKQLLYSEAKTPIKWMALESIHFGKYTHQSDVWSYGVTVWELMTFGAEPYAGLRLAEVPDLLEKGERLAQPQICTIDVYMVMVKCWMIDENIRPTFKELANEFTRMARDPPRYLVIKRESGPGIAPGPEPHGLTNKKLEEVELEPELDLDLDLEAEEDNLATTTLGSALSLPVGTLNRPRGSQSLLSPSSGYMPMNQGNLGESCQESAVSGSSERCPRPVSLHPMPRGCLASESSEGHVTGSEAELQEKVSMCRSRSRSRSPRPRGDSAYHSQRHSLLTPVTPLSPPGLEEEDVNGYVMPDTHLKGTPSSREGTLSSVGLSSVLGTEEEDEDEEYEYMNRRRRHSPPHPPRPSSLEELGYEYMDVGSDLSASLGSTQSCPLHPVPIMPTAGTTPDEDYEYMNRQRDGGGPGGDYAAMGACPASEQGYEEMRAFQGPGHQAPHVHYARLKTLRSLEATDSAFDNPDYWHSRLFPKANAQRT

> <PDB ID(s) of Target Chain>
3KEX,4RIX,4RIY,5CUS,5O4O,5O7P,6OP9

> <UniProt (SwissProt) Recommended Name of Target Chain>
Receptor tyrosine-protein kinase erbB-3

> <UniProt (SwissProt) Entry Name of Target Chain>
ERBB3_HUMAN

> <UniProt (SwissProt) Primary ID of Target Chain>
P21860

> <UniProt (SwissProt) Secondary ID(s) of Target Chain>
A8K6L6,B4DIK7,B4DV32,E9PDT8,Q9BUD7

> <UniProt (SwissProt) Alternative ID(s) of Target Chain>


> <UniProt (TrEMBL) Submitted Name of Target Chain>


> <UniProt (TrEMBL) Entry Name of Target Chain>


> <UniProt (TrEMBL) Primary ID of Target Chain>


> <UniProt (TrEMBL) Secondary ID(s) of Target Chain>


> <UniProt (TrEMBL) Alternative ID(s) of Target Chain>


> <training label>
7.14874

> <i_lp_mmshare_version>
54117

> <s_epik_input>
W2NIXTFbY0hdW2NIXVtjSF1bY0hdYzFbQ0BASF0oW0NIXShbQ0gzXSlbQ0gzXSlDKD1PKVtOSF1jKFtjSF1bY0hdMilbY0hdW2NIXWMyQyg9TylbTkhdW09IXQ==

> <s_epik_cmdline>
J2VwaWtfcHl0aG9uJywgJy1waHQnLCAnMC4xJywgJy1waCcsICc3LjQnLCAnLXRuJywgJzgnLCAnLW1hJywgJzIwMCcsICctaW1hZScsICc8aW5maWxlLm1hZT4nLCAnLW9tYWUnLCAnPG91dGZpbGUubWFlPic=

> <r_epik_Ionization_Penalty>
  0.0260

> <r_epik_Ionization_Penalty_Charging>
  0.0000

> <r_epik_Ionization_Penalty_Neutral>
  0.0260

> <r_epik_State_Penalty>
  0.0212

> <r_epik_Charging_Adjusted_Penalty>
0.0212001956575316

> <i_epik_Tot_Q>
0

> <i_epik_Tot_abs_Q>
0

> <i_f3d_flags>
0

> <s_lp_Force_Field>
OPLS_2005

> <r_lp_Energy>
30.304714

> <b_lp_Chiralities_Consistent>
1

> <s_lp_Variant>
BindingDB_50171908_mol_1-1

> <s_i_glide_gridfile>
struct_1_site_1

> <i_i_glide_lignum>
174

> <i_i_glide_rotatable_bonds>
8

> <r_i_docking_score>
-5.04366922105197

> <r_i_glide_ligand_efficiency>
-0.219289966132694

> <r_i_glide_ligand_efficiency_sa>
-0.62363149304574

> <r_i_glide_ligand_efficiency_ln>
-1.21960495111436

> <r_i_glide_gscore>
-5.06486922105197

> <r_i_glide_lipo>
-2.20790780856694

> <r_i_glide_hbond>
0

> <r_i_glide_metal>
0

> <r_i_glide_rewards>
-1.93081633042487

> <r_i_glide_evdw>
-33.566478729248

> <r_i_glide_ecoul>
-1.32571220397949

> <r_i_glide_erotb>
0.951035684999165

> <r_i_glide_esite>
0

> <r_i_glide_emodel>
-14.0240059106911

> <r_i_glide_energy>
-34.8921909332275

> <r_i_glide_einternal>
6.25625133514404

> <i_i_glide_confnum>
16

> <i_i_glide_posenum>
45

> <r_i_glide_eff_state_penalty>
0.0212

> <IC50 (nM)>
71

> <PMID>
27234887

> <s_epik_Chemistry_Notes>
This compound has a N-S or N-O group and may undergo hydrolysis at high or low pH.

> <r_glide_shape_similarity>
0.697856664657593

> <s_m_subgroup_title>
505 training

> <s_m_subgroupid>
pocket_pv

> <b_m_subgroup_collapsed>
0

$$$$
BindingDB_50171950_mol_1
                    3D
 Schrodinger Suite 2021-2.
 46 48  0  0  1  0            999 V2000
   22.2437    0.3921   53.1342 N   0  3  0  0  0  0
   19.2849    0.9035   51.0581 C   0  0  0  0  0  0
   25.4368   -0.5862   53.2925 C   0  0  0  0  0  0
   24.3579   -0.1207   53.9254 C   0  0  0  0  0  0
   20.4115    1.0122   51.7614 C   0  0  0  0  0  0
   23.0018   -0.6983   53.7189 C   0  0  1  0  0  0
   20.9581   -0.0595   52.6306 C   0  0  2  0  0  0
   18.9503    1.8595   50.0190 C   0  0  0  0  0  0
   26.7372    0.0296   53.3558 C   0  0  0  0  0  0
   20.8599   -1.6655   54.5152 C   0  0  0  0  0  0
   20.0951   -0.5497   53.7869 C   0  0  0  0  0  0
   22.2699   -1.2336   54.9441 C   0  0  0  0  0  0
   26.8657    1.4266   53.4493 C   0  0  0  0  0  0
   17.6067    2.1882   49.7875 C   0  0  0  0  0  0
   27.8686   -0.8033   53.3744 C   0  0  0  0  0  0
   19.9631    2.4542   49.2427 C   0  0  0  0  0  0
   19.6280    3.3405   48.2150 C   0  0  0  0  0  0
   17.2755    3.0952   48.7732 C   0  0  0  0  0  0
   28.1391    1.9876   53.5735 C   0  0  0  0  0  0
   29.1391   -0.2424   53.5059 C   0  0  0  0  0  0
   18.2844    3.6649   47.9844 C   0  0  0  0  0  0
   29.2677    1.1509   53.6224 C   0  0  0  0  0  0
   22.7895    0.7767   52.3805 H   0  0  0  0  0  0
   18.6283    0.0513   51.1803 H   0  0  0  0  0  0
   25.3604   -1.4523   52.6512 H   0  0  0  0  0  0
   24.4473    0.7302   54.5721 H   0  0  0  0  0  0
   21.0193    1.9030   51.6441 H   0  0  0  0  0  0
   23.0885   -1.5016   52.9845 H   0  0  0  0  0  0
   21.1604   -0.8660   51.9347 H   0  0  0  0  0  0
   20.2909   -2.0253   55.3709 H   0  0  0  0  0  0
   20.9472   -2.5025   53.8257 H   0  0  0  0  0  0
   19.8900    0.2702   54.4776 H   0  0  0  0  0  0
   19.1301   -0.9200   53.4360 H   0  0  0  0  0  0
   22.1947   -0.4698   55.7136 H   0  0  0  0  0  0
   22.8125   -2.0730   55.3797 H   0  0  0  0  0  0
   26.0018    2.0757   53.4294 H   0  0  0  0  0  0
   16.8211    1.7420   50.3794 H   0  0  0  0  0  0
   27.7625   -1.8767   53.3150 H   0  0  0  0  0  0
   21.0039    2.2128   49.3959 H   0  0  0  0  0  0
   20.4045    3.7761   47.6027 H   0  0  0  0  0  0
   16.2414    3.3436   48.5944 H   0  0  0  0  0  0
   28.2530    3.0598   53.6576 H   0  0  0  0  0  0
   30.0159   -0.8733   53.5344 H   0  0  0  0  0  0
   18.0289    4.3572   47.1962 H   0  0  0  0  0  0
   30.2537    1.5745   53.7519 H   0  0  0  0  0  0
   22.0966    1.1007   53.8307 H   0  0  0  0  0  0
  1  6  1  0  0  0
  1  7  1  0  0  0
  1 23  1  0  0  0
  1 46  1  0  0  0
  2  5  2  0  0  0
  2  8  1  0  0  0
  2 24  1  0  0  0
  3  4  2  0  0  0
  3  9  1  0  0  0
  3 25  1  0  0  0
  4  6  1  0  0  0
  4 26  1  0  0  0
  5  7  1  0  0  0
  5 27  1  0  0  0
  6 12  1  0  0  0
  6 28  1  0  0  0
  7 11  1  0  0  0
  7 29  1  0  0  0
  8 14  1  0  0  0
  8 16  2  0  0  0
  9 13  1  0  0  0
  9 15  2  0  0  0
 10 11  1  0  0  0
 10 12  1  0  0  0
 10 30  1  0  0  0
 10 31  1  0  0  0
 11 32  1  0  0  0
 11 33  1  0  0  0
 12 34  1  0  0  0
 12 35  1  0  0  0
 13 19  2  0  0  0
 13 36  1  0  0  0
 14 18  2  0  0  0
 14 37  1  0  0  0
 15 20  1  0  0  0
 15 38  1  0  0  0
 16 17  1  0  0  0
 16 39  1  0  0  0
 17 21  2  0  0  0
 17 40  1  0  0  0
 18 21  1  0  0  0
 18 41  1  0  0  0
 19 22  1  0  0  0
 19 42  1  0  0  0
 20 22  2  0  0  0
 20 43  1  0  0  0
 21 44  1  0  0  0
 22 45  1  0  0  0
M  CHG  1   1   1
M  END
> <s_m_entry_id>
472

> <s_m_entry_name>
pocket_pv.283

> <s_m_Source_Path>
/home/bortolaa/Project/GT/mario-master/docking/set505protein_struct_1_site_1_set505ligs_train

> <s_m_Source_File>
pocket_pv.maegz

> <i_m_Source_File_Index>
283

> <From>
www.bindingDB.org

> <BindingDB Reactant_set_id>
50497551

> <Ligand InChI>
InChI=1S/C22H21N3O4/c1-4-15-6-5-7-16(10-15)25-22-19-17(23-13-24-22)11-18(29-14(2)12-26-3)20-21(19)28-9-8-27-20/h1,5-7,10-11,13-14H,8-9,12H2,2-3H3,(H,23,24,25)

> <Ligand InChI Key>
AIVRNQLIHRYIBB-UHFFFAOYSA-N

> <BindingDB MonomerID>
50171950

> <BindingDB Ligand Name>
CHEMBL3805584::US10106508, Compound I-26

> <Target Name Assigned by Curator or DataSource>
Epidermal growth factor receptor

> <Target Source Organism According to Curator or DataSource>
Homo sapiens

> <Ki (nM)>


> <Kd (nM)>


> <EC50 (nM)>


> <kon (M-1-s-1)>


> <koff (s-1)>


> <pH>


> <Temp C>


> <Curation/DataSource>
ChEMBL

> <Article DOI>
10.1016/j.bmc.2016.01.003

> <PubChem AID>


> <Patent Number>


> <Authors>
Qin, X; Li, Z; Yang, L; Liu, P; Hu, L; Zeng, C; Pan, Z

> <Institution>
Beijing University of Technology

> <Link to Ligand in BindingDB>
http://www.bindingdb.org/bind/chemsearch/marvin/MolStructure.jsp?monomerid=50171950

> <Link to Ligand-Target Pair in BindingDB>
http://www.bindingdb.org/jsp/dbsearch/PrimarySearch_ki.jsp?energyterm=kJ/mole&tag=r21&monomerid=50171950&enzyme=Epidermal+growth+factor+receptor&column=ki&startPg=0&Increment=50&submit=Search

> <Ligand HET ID in PDB>


> <PDB ID(s) for Ligand-Target Complex>


> <PubChem CID>
122417702

> <PubChem SID>
104058126

> <ChEBI ID of Ligand>


> <ChEMBL ID of Ligand>
CHEMBL3805584

> <DrugBank ID of Ligand>


> <IUPHAR_GRAC ID of Ligand>


> <KEGG ID of Ligand>


> <ZINC ID of Ligand>
ZINC28477123

> <Number of Protein Chains in Target (>
1

> <BindingDB Target Chain Sequence>
MRPSGTAGAALLALLAALCPASRALEEKKVCQGTSNKLTQLGTFEDHFLSLQRMFNNCEVVLGNLEITYVQRNYDLSFLKTIQEVAGYVLIALNTVERIPLENLQIIRGNMYYENSYALAVLSNYDANKTGLKELPMRNLQEILHGAVRFSNNPALCNVESIQWRDIVSSDFLSNMSMDFQNHLGSCQKCDPSCPNGSCWGAGEENCQKLTKIICAQQCSGRCRGKSPSDCCHNQCAAGCTGPRESDCLVCRKFRDEATCKDTCPPLMLYNPTTYQMDVNPEGKYSFGATCVKKCPRNYVVTDHGSCVRACGADSYEMEEDGVRKCKKCEGPCRKVCNGIGIGEFKDSLSINATNIKHFKNCTSISGDLHILPVAFRGDSFTHTPPLDPQELDILKTVKEITGFLLIQAWPENRTDLHAFENLEIIRGRTKQHGQFSLAVVSLNITSLGLRSLKEISDGDVIISGNKNLCYANTINWKKLFGTSGQKTKIISNRGENSCKATGQVCHALCSPEGCWGPEPRDCVSCRNVSRGRECVDKCNLLEGEPREFVENSECIQCHPECLPQAMNITCTGRGPDNCIQCAHYIDGPHCVKTCPAGVMGENNTLVWKYADAGHVCHLCHPNCTYGCTGPGLEGCPTNGPKIPSIATGMVGALLLLLVVALGIGLFMRRRHIVRKRTLRRLLQERELVEPLTPSGEAPNQALLRILKETEFKKIKVLGSGAFGTVYKGLWIPEGEKVKIPVAIKELREATSPKANKEILDEAYVMASVDNPHVCRLLGICLTSTVQLITQLMPFGCLLDYVREHKDNIGSQYLLNWCVQIAKGMNYLEDRRLVHRDLAARNVLVKTPQHVKITDFGLAKLLGAEEKEYHAEGGKVPIKWMALESILHRIYTHQSDVWSYGVTVWELMTFGSKPYDGIPASEISSILEKGERLPQPPICTIDVYMIMVKCWMIDADSRPKFRELIIEFSKMARDPQRYLVIQGDERMHLPSPTDSNFYRALMDEEDMDDVVDADEYLIPQQGFFSSPSTSRTPLLSSLSATSNNSTVACIDRNGLQSCPIKEDSFLQRYSSDPTGALTEDSIDDTFLPVPEYINQSVPKRPAGSVQNPVYHNQPLNPAPSRDPHYQDPHSTAVGNPEYLNTVQPTCVNSTFDSPAHWAQKGSHQISLDNPDYQQDFFPKEAKPNGIFKGSTAENAEYLRVAPQSSEFIGA

> <PDB ID(s) of Target Chain>
1IVO,1M14,1M17,1MOX,1XKK,1Z9I,2GS2,2GS6,2ITW,2ITX,2ITY,2J5E,2J5F,2J6M,2RF9,2RGP,3B2V,3BEL,3GOP,3POZ,3QWQ,3VJO,3W2O,3W2P,3W2Q,3W2R,3W2S,3W32,3W33,4G5J,4I23,4JQ7,4JQ8,4JR3,4JRV,4KRO,4LI5,4RJ4,4RJ5,4RJ6,4RJ7,4RJ8,4TKS,4UIP,4UV7,4WKQ,4WRG,4ZAU,5C8K,5C8M,5C8N,5CAL,5CAN,5CAO,5CAP,5CAQ,5CAS,5CAU,5CAV,5EDP,5EDQ,5EDR,5EM5,5EM6,5EM7,5EM8,5FED,5GNK,5HCX,5HCY,5HCZ,5HIB,5HIC,5UGB,5WB7,5WB8,5Y25,6S89,6S8A

> <UniProt (SwissProt) Recommended Name of Target Chain>
Epidermal growth factor receptor

> <UniProt (SwissProt) Entry Name of Target Chain>
EGFR_HUMAN

> <UniProt (SwissProt) Primary ID of Target Chain>
P00533

> <UniProt (SwissProt) Secondary ID(s) of Target Chain>
O00688,O00732,P06268,Q14225,Q68GS5,Q92795,Q9BZS2,Q9GZX1,Q9H2C9,Q9H3C9,Q9UMD7,Q9UMD8,Q9UMG5

> <UniProt (SwissProt) Alternative ID(s) of Target Chain>


> <UniProt (TrEMBL) Submitted Name of Target Chain>


> <UniProt (TrEMBL) Entry Name of Target Chain>


> <UniProt (TrEMBL) Primary ID of Target Chain>


> <UniProt (TrEMBL) Secondary ID(s) of Target Chain>


> <UniProt (TrEMBL) Alternative ID(s) of Target Chain>


> <training label>
6.32422

> <i_lp_mmshare_version>
54117

> <s_epik_input>
W2NIXTFbY0hdW2NIXVtjSF1bY0hdYzEvW0NIXT1bQ0hdL1tDQEhdKFtDSDJdW0NIMl1bQ0gyXTIpW05IXVtDQEhdMlxbQ0hdPVtDSF1cYzNbY0hdW2NIXVtjSF1bY0hdW2NIXTM=

> <s_epik_cmdline>
J2VwaWtfcHl0aG9uJywgJy1waHQnLCAnMC4xJywgJy1waCcsICc3LjQnLCAnLXRuJywgJzgnLCAnLW1hJywgJzIwMCcsICctaW1hZScsICc8aW5maWxlLm1hZT4nLCAnLW9tYWUnLCAnPG91dGZpbGUubWFlPic=

> <r_lp_tautomer_probability>
1

> <r_epik_Ionization_Penalty>
  0.0035

> <r_epik_Ionization_Penalty_Charging>
  0.0035

> <r_epik_Ionization_Penalty_Neutral>
  0.0000

> <r_epik_State_Penalty>
  0.0000

> <r_epik_Charging_Adjusted_Penalty>
0.00352035988973624

> <i_epik_Tot_Q>
1

> <i_epik_Tot_abs_Q>
1

> <i_f3d_flags>
0

> <s_lp_Force_Field>
OPLS_2005

> <r_lp_Energy>
19.995974

> <b_lp_Chiralities_Consistent>
1

> <s_lp_Variant>
BindingDB_50171950_mol_1-1

> <s_i_glide_gridfile>
struct_1_site_1

> <i_i_glide_lignum>
106

> <i_i_glide_rotatable_bonds>
4

> <r_i_docking_score>
-5.01758186360367

> <r_i_glide_ligand_efficiency>
-0.228071902891076

> <r_i_glide_ligand_efficiency_sa>
-0.63906644145975

> <r_i_glide_ligand_efficiency_ln>
-1.22648002821011

> <r_i_glide_gscore>
-5.01758186360367

> <r_i_glide_lipo>
-3.10114792849969

> <r_i_glide_hbond>
0

> <r_i_glide_metal>
0

> <r_i_glide_rewards>
-1.42894118181818

> <r_i_glide_evdw>
-30.2979774475098

> <r_i_glide_ecoul>
1.08740234375

> <r_i_glide_erotb>
0.864295767527188

> <r_i_glide_esite>
0

> <r_i_glide_emodel>
-10.7612213677509

> <r_i_glide_energy>
-29.2105751037598

> <r_i_glide_einternal>
5.75383138656616

> <i_i_glide_confnum>
23

> <i_i_glide_posenum>
310

> <r_i_glide_eff_state_penalty>
0

> <IC50 (nM)>
474

> <PMID>
27234887

> <r_glide_shape_similarity>
0.686750173568726

> <s_m_subgroup_title>
505 training

> <s_m_subgroupid>
pocket_pv

> <b_m_subgroup_collapsed>
0

$$$$
BindingDB_50040440_mol_1
                    3D
 Schrodinger Suite 2021-2.
 50 54  0  0  1  0            999 V2000
   19.4438    1.2953   51.3165 C   0  0  0  0  0  0
   20.1417    2.3539   50.6408 N   0  0  0  0  0  0
   18.0524    1.1394   51.0434 C   0  0  0  0  0  0
   20.0484    0.5060   52.2394 N   0  0  0  0  0  0
   24.8425   -0.6091   54.3987 C   0  0  0  0  0  0
   22.8674   -1.2630   54.7663 N   0  0  0  0  0  0
   23.5987   -0.5780   53.8777 N   0  5  0  0  0  0
   23.6350   -1.6672   55.7744 N   0  0  0  0  0  0
   19.8193    2.7296   49.3730 C   0  0  0  0  0  0
   24.9052   -1.2652   55.5746 N   0  0  0  0  0  0
   17.9839   -0.6034   52.7018 N   0  0  0  0  0  0
   17.3352    0.1866   51.8236 C   0  0  0  0  0  0
   26.0758    0.0620   53.8359 C   0  0  0  0  0  0
   19.2964   -0.4080   52.8566 C   0  0  0  0  0  0
   26.1105    1.3938   53.3076 C   0  0  0  0  0  0
   17.4130    2.0324   49.9745 C   0  0  0  0  0  0
   20.9898    3.2634   51.4488 C   0  0  0  0  0  0
   23.1255    3.6674   52.5746 N   0  0  0  0  0  0
   24.8935    1.9984   52.7461 C   0  0  0  0  0  0
   18.4190    2.3740   48.8441 C   0  0  0  0  0  0
   20.5817    3.3707   48.6450 O   0  0  0  0  0  0
   24.3371    3.2622   53.0502 C   0  0  0  0  0  0
   22.4150    2.8230   51.7735 C   0  0  0  0  0  0
   24.2225    1.2399   51.7724 C   0  0  0  0  0  0
   22.9504    1.6083   51.2997 C   0  0  0  0  0  0
   27.3135   -0.6332   53.8972 C   0  0  0  0  0  0
   15.8216    0.0032   51.7783 C   0  0  0  0  0  0
   27.3488    2.0647   53.1547 C   0  0  0  0  0  0
   19.9628   -1.2765   53.8847 C   0  0  0  0  0  0
   28.5615    1.3793   53.3651 C   0  0  0  0  0  0
   28.5448    0.0047   53.6620 C   0  0  0  0  0  0
   16.5393    1.5392   49.5477 H   0  0  0  0  0  0
   17.0604    2.9472   50.4536 H   0  0  0  0  0  0
   21.0450    4.2573   50.9995 H   0  0  0  0  0  0
   20.4834    3.4209   52.4024 H   0  0  0  0  0  0
   18.0336    3.1933   48.2363 H   0  0  0  0  0  0
   18.5367    1.5339   48.1758 H   0  0  0  0  0  0
   24.8274    3.9292   53.7440 H   0  0  0  0  0  0
   24.6889    0.3342   51.4257 H   0  0  0  0  0  0
   22.4097    0.9641   50.6236 H   0  0  0  0  0  0
   27.3176   -1.6723   54.1746 H   0  0  0  0  0  0
   15.3209    0.9721   51.7572 H   0  0  0  0  0  0
   15.4622   -0.5395   52.6533 H   0  0  0  0  0  0
   15.5383   -0.5538   50.8848 H   0  0  0  0  0  0
   27.3700    3.0888   52.8048 H   0  0  0  0  0  0
   20.7626   -1.8446   53.4125 H   0  0  0  0  0  0
   20.3427   -0.6556   54.6951 H   0  0  0  0  0  0
   19.2615   -1.9925   54.3161 H   0  0  0  0  0  0
   29.5039    1.8905   53.2244 H   0  0  0  0  0  0
   29.4708   -0.5435   53.7603 H   0  0  0  0  0  0
  1  2  1  0  0  0
  1  3  2  0  0  0
  1  4  1  0  0  0
  2  9  1  0  0  0
  2 17  1  0  0  0
  3 12  1  0  0  0
  3 16  1  0  0  0
  4 14  2  0  0  0
  5 13  1  0  0  0
  5 10  2  0  0  0
  5  7  1  0  0  0
  6  8  2  0  0  0
  6  7  1  0  0  0
  8 10  1  0  0  0
  9 21  2  0  0  0
  9 20  1  0  0  0
 11 14  1  0  0  0
 11 12  2  0  0  0
 12 27  1  0  0  0
 13 15  2  0  0  0
 13 26  1  0  0  0
 14 29  1  0  0  0
 15 19  1  0  0  0
 15 28  1  0  0  0
 16 20  1  0  0  0
 16 32  1  0  0  0
 16 33  1  0  0  0
 17 23  1  0  0  0
 17 34  1  0  0  0
 17 35  1  0  0  0
 18 23  1  0  0  0
 18 22  2  0  0  0
 19 24  2  0  0  0
 19 22  1  0  0  0
 20 36  1  0  0  0
 20 37  1  0  0  0
 22 38  1  0  0  0
 23 25  2  0  0  0
 24 25  1  0  0  0
 24 39  1  0  0  0
 25 40  1  0  0  0
 26 31  2  0  0  0
 26 41  1  0  0  0
 27 42  1  0  0  0
 27 43  1  0  0  0
 27 44  1  0  0  0
 28 30  2  0  0  0
 28 45  1  0  0  0
 29 46  1  0  0  0
 29 47  1  0  0  0
 29 48  1  0  0  0
 30 31  1  0  0  0
 30 49  1  0  0  0
 31 50  1  0  0  0
M  CHG  1   7  -1
M  END
> <s_m_entry_id>
473

> <s_m_entry_name>
pocket_pv.284

> <s_m_Source_Path>
/home/bortolaa/Project/GT/mario-master/docking/set505protein_struct_1_site_1_set505ligs_train

> <s_m_Source_File>
pocket_pv.maegz

> <i_m_Source_File_Index>
284

> <From>
www.bindingDB.org

> <BindingDB Reactant_set_id>
50258916

> <Ligand InChI>
InChI=1S/C26H26N6O4/c1-3-19-9-8-10-20(15-19)30-25-21-16-23(35-2)24(17-22(21)28-18-29-25)36-14-7-5-4-6-12-31-13-11-27-26(31)32(33)34/h1,8-11,13,15-18H,4-7,12,14H2,2H3,(H,28,29,30)

> <Ligand InChI Key>
RWGIYOGVCTYDNX-UHFFFAOYSA-N

> <BindingDB MonomerID>
50040440

> <BindingDB Ligand Name>
CHEMBL3360610

> <Target Name Assigned by Curator or DataSource>
Epidermal growth factor receptor

> <Target Source Organism According to Curator or DataSource>
Homo sapiens

> <Ki (nM)>


> <Kd (nM)>


> <EC50 (nM)>


> <kon (M-1-s-1)>


> <koff (s-1)>


> <pH>


> <Temp C>


> <Curation/DataSource>
ChEMBL

> <Article DOI>
10.1016/j.bmc.2014.10.038

> <PubChem AID>


> <Patent Number>


> <Authors>
Cheng, W; Yuan, Y; Qiu, N; Peng, P; Sheng, R; Hu, Y

> <Institution>
TBA

> <Link to Ligand in BindingDB>
http://www.bindingdb.org/bind/chemsearch/marvin/MolStructure.jsp?monomerid=50040440

> <Link to Ligand-Target Pair in BindingDB>
http://www.bindingdb.org/jsp/dbsearch/PrimarySearch_ki.jsp?energyterm=kJ/mole&tag=r21&monomerid=50040440&enzyme=Epidermal+growth+factor+receptor&column=ki&startPg=0&Increment=50&submit=Search

> <Ligand HET ID in PDB>


> <PDB ID(s) for Ligand-Target Complex>


> <PubChem CID>
118724347

> <PubChem SID>
103972484

> <ChEBI ID of Ligand>


> <ChEMBL ID of Ligand>
CHEMBL3360610

> <DrugBank ID of Ligand>


> <IUPHAR_GRAC ID of Ligand>


> <KEGG ID of Ligand>


> <ZINC ID of Ligand>
ZINC03781110

> <Number of Protein Chains in Target (>
1

> <BindingDB Target Chain Sequence>
MRPSGTAGAALLALLAALCPASRALEEKKVCQGTSNKLTQLGTFEDHFLSLQRMFNNCEVVLGNLEITYVQRNYDLSFLKTIQEVAGYVLIALNTVERIPLENLQIIRGNMYYENSYALAVLSNYDANKTGLKELPMRNLQEILHGAVRFSNNPALCNVESIQWRDIVSSDFLSNMSMDFQNHLGSCQKCDPSCPNGSCWGAGEENCQKLTKIICAQQCSGRCRGKSPSDCCHNQCAAGCTGPRESDCLVCRKFRDEATCKDTCPPLMLYNPTTYQMDVNPEGKYSFGATCVKKCPRNYVVTDHGSCVRACGADSYEMEEDGVRKCKKCEGPCRKVCNGIGIGEFKDSLSINATNIKHFKNCTSISGDLHILPVAFRGDSFTHTPPLDPQELDILKTVKEITGFLLIQAWPENRTDLHAFENLEIIRGRTKQHGQFSLAVVSLNITSLGLRSLKEISDGDVIISGNKNLCYANTINWKKLFGTSGQKTKIISNRGENSCKATGQVCHALCSPEGCWGPEPRDCVSCRNVSRGRECVDKCNLLEGEPREFVENSECIQCHPECLPQAMNITCTGRGPDNCIQCAHYIDGPHCVKTCPAGVMGENNTLVWKYADAGHVCHLCHPNCTYGCTGPGLEGCPTNGPKIPSIATGMVGALLLLLVVALGIGLFMRRRHIVRKRTLRRLLQERELVEPLTPSGEAPNQALLRILKETEFKKIKVLGSGAFGTVYKGLWIPEGEKVKIPVAIKELREATSPKANKEILDEAYVMASVDNPHVCRLLGICLTSTVQLITQLMPFGCLLDYVREHKDNIGSQYLLNWCVQIAKGMNYLEDRRLVHRDLAARNVLVKTPQHVKITDFGLAKLLGAEEKEYHAEGGKVPIKWMALESILHRIYTHQSDVWSYGVTVWELMTFGSKPYDGIPASEISSILEKGERLPQPPICTIDVYMIMVKCWMIDADSRPKFRELIIEFSKMARDPQRYLVIQGDERMHLPSPTDSNFYRALMDEEDMDDVVDADEYLIPQQGFFSSPSTSRTPLLSSLSATSNNSTVACIDRNGLQSCPIKEDSFLQRYSSDPTGALTEDSIDDTFLPVPEYINQSVPKRPAGSVQNPVYHNQPLNPAPSRDPHYQDPHSTAVGNPEYLNTVQPTCVNSTFDSPAHWAQKGSHQISLDNPDYQQDFFPKEAKPNGIFKGSTAENAEYLRVAPQSSEFIGA

> <PDB ID(s) of Target Chain>
1IVO,1M14,1M17,1MOX,1XKK,1Z9I,2GS2,2GS6,2ITW,2ITX,2ITY,2J5E,2J5F,2J6M,2RF9,2RGP,3B2V,3BEL,3GOP,3POZ,3QWQ,3VJO,3W2O,3W2P,3W2Q,3W2R,3W2S,3W32,3W33,4G5J,4I23,4JQ7,4JQ8,4JR3,4JRV,4KRO,4LI5,4RJ4,4RJ5,4RJ6,4RJ7,4RJ8,4TKS,4UIP,4UV7,4WKQ,4WRG,4ZAU,5C8K,5C8M,5C8N,5CAL,5CAN,5CAO,5CAP,5CAQ,5CAS,5CAU,5CAV,5EDP,5EDQ,5EDR,5EM5,5EM6,5EM7,5EM8,5FED,5GNK,5HCX,5HCY,5HCZ,5HIB,5HIC,5UGB,5WB7,5WB8,5Y25,6S89,6S8A

> <UniProt (SwissProt) Recommended Name of Target Chain>
Epidermal growth factor receptor

> <UniProt (SwissProt) Entry Name of Target Chain>
EGFR_HUMAN

> <UniProt (SwissProt) Primary ID of Target Chain>
P00533

> <UniProt (SwissProt) Secondary ID(s) of Target Chain>
O00688,O00732,P06268,Q14225,Q68GS5,Q92795,Q9BZS2,Q9GZX1,Q9H2C9,Q9H3C9,Q9UMD7,Q9UMD8,Q9UMG5

> <UniProt (SwissProt) Alternative ID(s) of Target Chain>


> <UniProt (TrEMBL) Submitted Name of Target Chain>


> <UniProt (TrEMBL) Entry Name of Target Chain>


> <UniProt (TrEMBL) Primary ID of Target Chain>


> <UniProt (TrEMBL) Secondary ID(s) of Target Chain>


> <UniProt (TrEMBL) Alternative ID(s) of Target Chain>


> <training label>
9.24413

> <i_lp_mmshare_version>
54117

> <s_epik_input>
bjFjKFtDSDNdKW5jKFtDSDNdKWMoYzEyKVtDSDJdW0NIMl1DKD1PKU4yW0NIMl1jKFtjSF1bY0hdMyluW2NIXWMzLWMoW2NIXVtjSF1bY0hdW2NIXTQpYzQtYzVubltuSF1uNQ==

> <s_epik_cmdline>
J2VwaWtfcHl0aG9uJywgJy1waHQnLCAnMC4xJywgJy1waCcsICc3LjQnLCAnLXRuJywgJzgnLCAnLW1hJywgJzIwMCcsICctaW1hZScsICc8aW5maWxlLm1hZT4nLCAnLW9tYWUnLCAnPG91dGZpbGUubWFlPic=

> <r_lp_tautomer_probability>
1

> <r_epik_Ionization_Penalty>
  0.0010

> <r_epik_Ionization_Penalty_Charging>
  0.0003

> <r_epik_Ionization_Penalty_Neutral>
  0.0007

> <r_epik_State_Penalty>
  0.0000

> <r_epik_Charging_Adjusted_Penalty>
0.000348033583698045

> <i_epik_Tot_Q>
-1

> <i_epik_Tot_abs_Q>
1

> <i_f3d_flags>
0

> <s_lp_Force_Field>
OPLS_2005

> <r_lp_Energy>
24.753912

> <b_lp_Chiralities_Consistent>
1

> <s_lp_Variant>
BindingDB_50040440_mol_1-1

> <s_i_glide_gridfile>
struct_1_site_1

> <i_i_glide_lignum>
284

> <i_i_glide_rotatable_bonds>
4

> <r_i_docking_score>
-4.890443531867

> <r_i_glide_ligand_efficiency>
-0.157756242963451

> <r_i_glide_ligand_efficiency_sa>
-0.495572408872079

> <r_i_glide_ligand_efficiency_ln>
-1.10294489053106

> <r_i_glide_gscore>
-4.890443531867

> <r_i_glide_lipo>
-1.53836976079706

> <r_i_glide_hbond>
0

> <r_i_glide_metal>
0

> <r_i_glide_rewards>
-1.40175397480765

> <r_i_glide_evdw>
-39.2860794067383

> <r_i_glide_ecoul>
-3.01158213615417

> <r_i_glide_erotb>
0.465721494497764

> <r_i_glide_esite>
0

> <r_i_glide_emodel>
-23.1714244143236

> <r_i_glide_energy>
-42.2976615428925

> <r_i_glide_einternal>
2.92947030067444

> <i_i_glide_confnum>
114

> <i_i_glide_posenum>
115

> <r_i_glide_eff_state_penalty>
0

> <IC50 (nM)>
0.57

> <PMID>
25468044

> <r_glide_shape_similarity>
0.685167372226715

> <s_m_subgroup_title>
505 training

> <s_m_subgroupid>
pocket_pv

> <b_m_subgroup_collapsed>
0

$$$$
BindingDB_50040451_mol_1
                    3D
 Schrodinger Suite 2021-2.
 54 58  0  0  1  0            999 V2000
   19.5982    1.4151   51.2261 C   0  0  0  0  0  0
   20.2829    2.5183   50.6110 N   0  0  0  0  0  0
   18.2837    1.0917   50.7716 C   0  0  0  0  0  0
   20.1380    0.7319   52.2594 N   0  0  0  0  0  0
   25.3053   -0.5082   54.5120 C   0  0  0  0  0  0
   24.1884   -1.3176   56.0950 N   0  0  0  0  0  0
   25.4105   -0.8485   55.8047 N   0  5  0  0  0  0
   23.4141   -1.2617   55.0092 N   0  0  0  0  0  0
   20.0721    2.8505   49.3099 C   0  0  0  0  0  0
   24.1094   -0.8022   53.9658 N   0  0  0  0  0  0
   18.1126   -0.5112   52.5521 N   0  0  0  0  0  0
   17.5370    0.1467   51.5255 C   0  0  0  0  0  0
   26.4342    0.2083   53.8508 C   0  0  0  0  0  0
   19.3845   -0.1923   52.8420 C   0  0  0  0  0  0
   26.3179    1.5181   53.2839 C   0  0  0  0  0  0
   17.7748    1.7780   49.4968 C   0  0  0  0  0  0
   21.0744    3.4192   51.4816 C   0  0  0  0  0  0
   25.0287    2.0711   52.8278 C   0  0  0  0  0  0
   18.9709    2.1147   48.5605 C   0  0  0  0  0  0
   20.7166    3.7136   48.7118 O   0  0  0  0  0  0
   24.2237    1.2796   51.9965 C   0  0  0  0  0  0
   24.5965    3.4017   53.0802 C   0  0  0  0  0  0
   22.5008    2.9856   51.8386 C   0  0  0  0  0  0
   22.9693    1.6895   51.5289 C   0  0  0  0  0  0
   23.3487    3.8591   52.5722 C   0  0  0  0  0  0
   27.7382   -0.3459   53.9678 C   0  0  0  0  0  0
   16.0603   -0.1495   51.2782 C   0  0  0  0  0  0
   27.4887    2.2832   53.0616 C   0  0  0  0  0  0
   19.9782   -0.8482   54.0589 C   0  0  0  0  0  0
   20.8036   -2.0859   53.7747 C   0  0  0  0  0  0
   28.8901    0.3939   53.6644 C   0  0  0  0  0  0
   28.7601    1.7363   53.2707 C   0  0  0  0  0  0
   17.0900    1.1083   48.9779 H   0  0  0  0  0  0
   17.2157    2.6795   49.7633 H   0  0  0  0  0  0
   21.1173    4.4293   51.0651 H   0  0  0  0  0  0
   20.5251    3.5373   52.4195 H   0  0  0  0  0  0
   18.6410    2.6988   47.7094 H   0  0  0  0  0  0
   19.4820    1.2314   48.1857 H   0  0  0  0  0  0
   24.6030    0.3193   51.7541 H   0  0  0  0  0  0
   25.1880    4.0551   53.7049 H   0  0  0  0  0  0
   22.3776    0.9935   50.9492 H   0  0  0  0  0  0
   23.0415    4.8635   52.8099 H   0  0  0  0  0  0
   27.8461   -1.3216   54.3879 H   0  0  0  0  0  0
   15.9234   -0.6471   50.3158 H   0  0  0  0  0  0
   15.4923    0.7770   51.2635 H   0  0  0  0  0  0
   15.6357   -0.7870   52.0549 H   0  0  0  0  0  0
   27.3976    3.2960   52.7001 H   0  0  0  0  0  0
   20.5326   -0.1362   54.6639 H   0  0  0  0  0  0
   19.1037   -1.1855   54.5909 H   0  0  0  0  0  0
   21.2207   -2.4672   54.7122 H   0  0  0  0  0  0
   20.1561   -2.8622   53.3777 H   0  0  0  0  0  0
   21.6180   -1.9108   53.0643 H   0  0  0  0  0  0
   29.8709   -0.0397   53.8025 H   0  0  0  0  0  0
   29.6517    2.3177   53.0872 H   0  0  0  0  0  0
  1  2  1  0  0  0
  1  3  2  0  0  0
  1  4  1  0  0  0
  2  9  1  0  0  0
  2 17  1  0  0  0
  3 12  1  0  0  0
  3 16  1  0  0  0
  4 14  2  0  0  0
  5 13  1  0  0  0
  5 10  2  0  0  0
  5  7  1  0  0  0
  6  8  2  0  0  0
  6  7  1  0  0  0
  8 10  1  0  0  0
  9 20  2  0  0  0
  9 19  1  0  0  0
 11 14  1  0  0  0
 11 12  2  0  0  0
 12 27  1  0  0  0
 13 15  2  0  0  0
 13 26  1  0  0  0
 14 29  1  0  0  0
 15 18  1  0  0  0
 15 28  1  0  0  0
 16 19  1  0  0  0
 16 33  1  0  0  0
 16 34  1  0  0  0
 17 23  1  0  0  0
 17 35  1  0  0  0
 17 36  1  0  0  0
 18 22  2  0  0  0
 18 21  1  0  0  0
 19 37  1  0  0  0
 19 38  1  0  0  0
 21 24  2  0  0  0
 21 39  1  0  0  0
 22 25  1  0  0  0
 22 40  1  0  0  0
 23 24  1  0  0  0
 23 25  2  0  0  0
 24 41  1  0  0  0
 25 42  1  0  0  0
 26 31  2  0  0  0
 26 43  1  0  0  0
 27 44  1  0  0  0
 27 45  1  0  0  0
 27 46  1  0  0  0
 28 32  2  0  0  0
 28 47  1  0  0  0
 29 30  1  0  0  0
 29 48  1  0  0  0
 29 49  1  0  0  0
 30 50  1  0  0  0
 30 51  1  0  0  0
 30 52  1  0  0  0
 31 32  1  0  0  0
 31 53  1  0  0  0
 32 54  1  0  0  0
M  CHG  1   7  -1
M  END
> <s_m_entry_id>
474

> <s_m_entry_name>
pocket_pv.285

> <s_m_Source_Path>
/home/bortolaa/Project/GT/mario-master/docking/set505protein_struct_1_site_1_set505ligs_train

> <s_m_Source_File>
pocket_pv.maegz

> <i_m_Source_File_Index>
285

> <From>
www.bindingDB.org

> <BindingDB Reactant_set_id>
50258927

> <Ligand InChI>
InChI=1S/C22H21BrN6O5/c1-32-19-12-17-18(25-14-26-21(17)27-16-4-2-3-15(23)11-16)13-20(19)34-10-9-33-8-7-28-6-5-24-22(28)29(30)31/h2-6,11-14H,7-10H2,1H3,(H,25,26,27)

> <Ligand InChI Key>
DBKGMCHPHOAIPB-UHFFFAOYSA-N

> <BindingDB MonomerID>
50040451

> <BindingDB Ligand Name>
CHEMBL3360620

> <Target Name Assigned by Curator or DataSource>
Epidermal growth factor receptor

> <Target Source Organism According to Curator or DataSource>
Homo sapiens

> <Ki (nM)>


> <Kd (nM)>


> <EC50 (nM)>


> <kon (M-1-s-1)>


> <koff (s-1)>


> <pH>


> <Temp C>


> <Curation/DataSource>
ChEMBL

> <Article DOI>
10.1016/j.bmc.2014.10.038

> <PubChem AID>


> <Patent Number>


> <Authors>
Cheng, W; Yuan, Y; Qiu, N; Peng, P; Sheng, R; Hu, Y

> <Institution>
TBA

> <Link to Ligand in BindingDB>
http://www.bindingdb.org/bind/chemsearch/marvin/MolStructure.jsp?monomerid=50040451

> <Link to Ligand-Target Pair in BindingDB>
http://www.bindingdb.org/jsp/dbsearch/PrimarySearch_ki.jsp?energyterm=kJ/mole&tag=r21&monomerid=50040451&enzyme=Epidermal+growth+factor+receptor&column=ki&startPg=0&Increment=50&submit=Search

> <Ligand HET ID in PDB>


> <PDB ID(s) for Ligand-Target Complex>


> <PubChem CID>
118724358

> <PubChem SID>
103972495

> <ChEBI ID of Ligand>


> <ChEMBL ID of Ligand>
CHEMBL3360620

> <DrugBank ID of Ligand>


> <IUPHAR_GRAC ID of Ligand>


> <KEGG ID of Ligand>


> <ZINC ID of Ligand>
ZINC13734614

> <Number of Protein Chains in Target (>
1

> <BindingDB Target Chain Sequence>
MRPSGTAGAALLALLAALCPASRALEEKKVCQGTSNKLTQLGTFEDHFLSLQRMFNNCEVVLGNLEITYVQRNYDLSFLKTIQEVAGYVLIALNTVERIPLENLQIIRGNMYYENSYALAVLSNYDANKTGLKELPMRNLQEILHGAVRFSNNPALCNVESIQWRDIVSSDFLSNMSMDFQNHLGSCQKCDPSCPNGSCWGAGEENCQKLTKIICAQQCSGRCRGKSPSDCCHNQCAAGCTGPRESDCLVCRKFRDEATCKDTCPPLMLYNPTTYQMDVNPEGKYSFGATCVKKCPRNYVVTDHGSCVRACGADSYEMEEDGVRKCKKCEGPCRKVCNGIGIGEFKDSLSINATNIKHFKNCTSISGDLHILPVAFRGDSFTHTPPLDPQELDILKTVKEITGFLLIQAWPENRTDLHAFENLEIIRGRTKQHGQFSLAVVSLNITSLGLRSLKEISDGDVIISGNKNLCYANTINWKKLFGTSGQKTKIISNRGENSCKATGQVCHALCSPEGCWGPEPRDCVSCRNVSRGRECVDKCNLLEGEPREFVENSECIQCHPECLPQAMNITCTGRGPDNCIQCAHYIDGPHCVKTCPAGVMGENNTLVWKYADAGHVCHLCHPNCTYGCTGPGLEGCPTNGPKIPSIATGMVGALLLLLVVALGIGLFMRRRHIVRKRTLRRLLQERELVEPLTPSGEAPNQALLRILKETEFKKIKVLGSGAFGTVYKGLWIPEGEKVKIPVAIKELREATSPKANKEILDEAYVMASVDNPHVCRLLGICLTSTVQLITQLMPFGCLLDYVREHKDNIGSQYLLNWCVQIAKGMNYLEDRRLVHRDLAARNVLVKTPQHVKITDFGLAKLLGAEEKEYHAEGGKVPIKWMALESILHRIYTHQSDVWSYGVTVWELMTFGSKPYDGIPASEISSILEKGERLPQPPICTIDVYMIMVKCWMIDADSRPKFRELIIEFSKMARDPQRYLVIQGDERMHLPSPTDSNFYRALMDEEDMDDVVDADEYLIPQQGFFSSPSTSRTPLLSSLSATSNNSTVACIDRNGLQSCPIKEDSFLQRYSSDPTGALTEDSIDDTFLPVPEYINQSVPKRPAGSVQNPVYHNQPLNPAPSRDPHYQDPHSTAVGNPEYLNTVQPTCVNSTFDSPAHWAQKGSHQISLDNPDYQQDFFPKEAKPNGIFKGSTAENAEYLRVAPQSSEFIGA

> <PDB ID(s) of Target Chain>
1IVO,1M14,1M17,1MOX,1XKK,1Z9I,2GS2,2GS6,2ITW,2ITX,2ITY,2J5E,2J5F,2J6M,2RF9,2RGP,3B2V,3BEL,3GOP,3POZ,3QWQ,3VJO,3W2O,3W2P,3W2Q,3W2R,3W2S,3W32,3W33,4G5J,4I23,4JQ7,4JQ8,4JR3,4JRV,4KRO,4LI5,4RJ4,4RJ5,4RJ6,4RJ7,4RJ8,4TKS,4UIP,4UV7,4WKQ,4WRG,4ZAU,5C8K,5C8M,5C8N,5CAL,5CAN,5CAO,5CAP,5CAQ,5CAS,5CAU,5CAV,5EDP,5EDQ,5EDR,5EM5,5EM6,5EM7,5EM8,5FED,5GNK,5HCX,5HCY,5HCZ,5HIB,5HIC,5UGB,5WB7,5WB8,5Y25,6S89,6S8A

> <UniProt (SwissProt) Recommended Name of Target Chain>
Epidermal growth factor receptor

> <UniProt (SwissProt) Entry Name of Target Chain>
EGFR_HUMAN

> <UniProt (SwissProt) Primary ID of Target Chain>
P00533

> <UniProt (SwissProt) Secondary ID(s) of Target Chain>
O00688,O00732,P06268,Q14225,Q68GS5,Q92795,Q9BZS2,Q9GZX1,Q9H2C9,Q9H3C9,Q9UMD7,Q9UMD8,Q9UMG5

> <UniProt (SwissProt) Alternative ID(s) of Target Chain>


> <UniProt (TrEMBL) Submitted Name of Target Chain>


> <UniProt (TrEMBL) Entry Name of Target Chain>


> <UniProt (TrEMBL) Primary ID of Target Chain>


> <UniProt (TrEMBL) Secondary ID(s) of Target Chain>


> <UniProt (TrEMBL) Alternative ID(s) of Target Chain>


> <training label>
9.08619

> <i_lp_mmshare_version>
54117

> <s_epik_input>
W0NIM11bQ0gyXWMobjEpbmMoW0NIM10pYyhjMTIpW0NIMl1bQ0gyXUMoPU8pTjJbQ0gyXWMoW2NIXVtjSF0zKVtjSF1bY0hdYzMtYyhbY0hdW2NIXVtjSF1bY0hdNCljNC1jNW5uW25IXW41

> <s_epik_cmdline>
J2VwaWtfcHl0aG9uJywgJy1waHQnLCAnMC4xJywgJy1waCcsICc3LjQnLCAnLXRuJywgJzgnLCAnLW1hJywgJzIwMCcsICctaW1hZScsICc8aW5maWxlLm1hZT4nLCAnLW9tYWUnLCAnPG91dGZpbGUubWFlPic=

> <r_lp_tautomer_probability>
1

> <r_epik_Ionization_Penalty>
  0.0004

> <r_epik_Ionization_Penalty_Charging>
  0.0003

> <r_epik_Ionization_Penalty_Neutral>
  0.0000

> <r_epik_State_Penalty>
  0.0000

> <r_epik_Charging_Adjusted_Penalty>
0.000348033583698045

> <i_epik_Tot_Q>
-1

> <i_epik_Tot_abs_Q>
1

> <i_f3d_flags>
0

> <s_lp_Force_Field>
OPLS_2005

> <r_lp_Energy>
28.656936

> <b_lp_Chiralities_Consistent>
1

> <s_lp_Variant>
BindingDB_50040451_mol_1-1

> <s_i_glide_gridfile>
struct_1_site_1

> <i_i_glide_lignum>
281

> <i_i_glide_rotatable_bonds>
5

> <r_i_docking_score>
-4.67687298639384

> <r_i_glide_ligand_efficiency>
-0.146152280824808

> <r_i_glide_ligand_efficiency_sa>
-0.464004568121663

> <r_i_glide_ligand_efficiency_ln>
-1.04727934839625

> <r_i_glide_gscore>
-4.67687298639384

> <r_i_glide_lipo>
-1.49864311614436

> <r_i_glide_hbond>
0

> <r_i_glide_metal>
0

> <r_i_glide_rewards>
-1.245595883483

> <r_i_glide_evdw>
-39.1206283569336

> <r_i_glide_ecoul>
-2.7786431312561

> <r_i_glide_erotb>
0.440193900768611

> <r_i_glide_esite>
0

> <r_i_glide_emodel>
-18.9857249837949

> <r_i_glide_energy>
-41.8992714881897

> <r_i_glide_einternal>
3.69855833053589

> <i_i_glide_confnum>
93

> <i_i_glide_posenum>
399

> <r_i_glide_eff_state_penalty>
0

> <IC50 (nM)>
0.82

> <PMID>
25468044

> <r_glide_shape_similarity>
0.639091551303864

> <s_m_subgroup_title>
505 training

> <s_m_subgroupid>
pocket_pv

> <b_m_subgroup_collapsed>
0

$$$$
